@<TRIPOS>MOLECULE
tmp/3ai8A00.pdb
 105 104 0 0 0
SMALL
GASTEIGER

@<TRIPOS>ATOM
      1  N        -29.1360  -14.5630  -42.2290 N.3    25  GLN25      -0.1231
      2  CA       -29.4530  -13.2780  -41.5670 C.3    25  GLN25       0.1698
      3  C        -30.7260  -13.3430  -40.7320 C.2    25  GLN25       0.2593
      4  O        -30.9830  -12.4380  -39.9350 O.2    25  GLN25      -0.2718
      5  CB       -29.6160  -12.1590  -42.6110 C.3    25  GLN25       0.0381
      6  CG       -30.6990  -12.3800  -43.5980 C.3    25  GLN25       0.0905
      7  CD       -30.5630  -11.4390  -44.7850 C.2    25  GLN25       0.2608
      8  OE1      -29.7950  -11.6850  -45.6770 O.2    25  GLN25      -0.2717
      9  NE2      -31.3180  -10.3610  -44.7840 N.am   25  GLN25      -0.0878
     10  N        -31.5140  -14.4090  -40.9050 N.am   26  GLY26      -0.1942
     11  CA       -32.7680  -14.5440  -40.1780 C.3    26  GLY26       0.2014
     12  C        -33.8090  -13.5270  -40.6490 C.2    26  GLY26       0.2640
     13  O        -33.6400  -12.9630  -41.7210 O.2    26  GLY26      -0.2714
     14  N        -34.8540  -13.2740  -39.8620 N.am   27  SER27      -0.1935
     15  CA       -35.9320  -12.3390  -40.2660 C.3    27  SER27       0.2055
     16  C        -35.4160  -10.9630  -39.9200 C.2    27  SER27       0.2643
     17  O        -35.8040  -10.3770  -38.9090 O.2    27  SER27      -0.2714
     18  CB       -37.2400  -12.6280  -39.4880 C.3    27  SER27       0.2130
     19  OG       -37.7210  -13.9370  -39.7870 O.3    27  SER27      -0.2179
     20  N        -34.4860  -10.4750  -40.7070 N.am   28  CYS28      -0.1953
     21  CA       -33.8370   -9.2140  -40.4260 C.3    28  CYS28       0.1843
     22  C        -33.1560   -8.8090  -41.7130 C.2    28  CYS28       0.2626
     23  O        -32.6260   -9.6510  -42.3900 O.2    28  CYS28      -0.2714
     24  CB       -32.8260   -9.4590  -39.2940 C.3    28  CYS28       0.0997
     25  SG       -31.6910   -8.1300  -38.8370 S.3    28  CYS28      -0.0797
     26  N        -33.2810   -7.5520  -42.1050 N.am   29  GLY29      -0.1954
     27  CA       -32.6640   -7.0720  -43.3320 C.3    29  GLY29       0.1869
     28  C        -31.2360   -6.6610  -43.0380 C.2    29  GLY29       0.2309
     29  O        -30.8670   -5.4920  -43.1230 O.2    29  GLY29      -0.2863
     30  N        -28.5000   -8.1050  -44.5980 N.3    31  CYS31      -0.1235
     31  CA       -27.6320   -8.4920  -45.7120 C.3    31  CYS31       0.1677
     32  C        -26.4430   -7.5260  -45.7740 C.2    31  CYS31       0.2270
     33  O        -25.2900   -7.9500  -46.0090 O.2    31  CYS31      -0.2867
     34  CB       -28.3970   -8.4740  -47.0660 C.3    31  CYS31       0.0956
     35  SG       -29.6120   -7.1430  -47.3340 S.3    31  CYS31      -0.0801
     36  N        -35.9130  -18.8630  -46.4780 N.3   112  HIS112     -0.1226
     37  CA       -35.9400  -17.6640  -47.3330 C.3   112  HIS112      0.1752
     38  C        -36.4380  -18.0650  -48.7190 C.2   112  HIS112      0.2596
     39  O        -35.6550  -18.3880  -49.6140 O.2   112  HIS112     -0.2718
     40  CB       -34.5610  -16.9630  -47.4680 C.3   112  HIS112      0.0759
     41  CG       -33.9620  -16.5150  -46.1600 C.ar  112  HIS112      0.0818
     42  ND1      -33.9110  -15.1920  -45.7650 N.ar  112  HIS112     -0.2268
     43  CD2      -33.4200  -17.2300  -45.1400 C.ar  112  HIS112      0.1154
     44  CE1      -33.3790  -15.1110  -44.5540 C.ar  112  HIS112      0.1986
     45  NE2      -33.0780  -16.3420  -44.1510 N.ar  112  HIS112     -0.2212
     46  N        -37.7520  -17.9940  -48.8890 N.am  113  HIS113     -0.1975
     47  CA       -38.4040  -18.3940  -50.1590 C.3   113  HIS113      0.1656
     48  C        -38.1000  -19.8410  -50.6610 C.2   113  HIS113      0.2291
     49  O        -38.0460  -20.1130  -51.8900 O.2   113  HIS113     -0.2864
     50  CB       -38.0990  -17.3710  -51.2560 C.3   113  HIS113      0.0771
     51  CG       -38.1180  -15.9600  -50.7730 C.ar  113  HIS113      0.0820
     52  ND1      -39.2890  -15.2740  -50.5170 N.ar  113  HIS113     -0.2267
     53  CD2      -37.1130  -15.1000  -50.4900 C.ar  113  HIS113      0.1154
     54  CE1      -39.0100  -14.0540  -50.1070 C.ar  113  HIS113      0.1986
     55  NE2      -37.6990  -13.9220  -50.0860 N.ar  113  HIS113     -0.2212
     56  N        -39.2420  -17.2670  -43.0060 N.3   121  CYS121     -0.1221
     57  CA       -38.7700  -15.9880  -42.5270 C.3   121  CYS121      0.1808
     58  C        -39.9610  -15.0480  -42.4770 C.2   121  CYS121      0.2602
     59  O        -40.7330  -14.9880  -43.4220 O.2   121  CYS121     -0.2717
     60  CB       -37.6930  -15.4370  -43.4410 C.3   121  CYS121      0.0970
     61  SG       -36.2350  -16.5060  -43.4810 S.3   121  CYS121     -0.0800
     62  N        -40.1550  -14.4070  -41.3330 N.am  122  THR122     -0.1939
     63  CA       -41.2270  -13.4410  -41.1750 C.3   122  THR122      0.2028
     64  C        -40.5610  -12.1210  -41.6070 C.2   122  THR122      0.2643
     65  O        -39.4970  -12.1760  -42.2100 O.2   122  THR122     -0.2714
     66  CB       -41.7810  -13.4900  -39.7350 C.3   122  THR122      0.1808
     67  OG1      -40.7440  -13.2180  -38.7950 O.3   122  THR122     -0.2208
     68  CG2      -42.2940  -14.9610  -39.4610 C.3   122  THR122      0.0379
     69  N        -41.1310  -10.9460  -41.3630 N.am  123  GLY123     -0.1939
     70  CA       -40.4420   -9.7540  -41.8930 C.3   123  GLY123      0.2014
     71  C        -39.0510   -9.3730  -41.3710 C.2   123  GLY123      0.2638
     72  O        -38.1410  -10.2070  -41.3320 O.2   123  GLY123     -0.2714
     73  N        -38.8300   -8.0660  -41.2380 N.am  124  GLU124     -0.1977
     74  CA       -37.6360   -7.5310  -40.6150 C.3   124  GLU124      0.1602
     75  C        -38.0680   -7.3200  -39.1750 C.2   124  GLU124      0.2287
     76  O        -38.9910   -6.5450  -38.8820 O.2   124  GLU124     -0.2864
     77  CB       -37.2500   -6.1810  -41.2070 C.3   124  GLU124      0.0415
     78  CG       -36.9200   -6.2180  -42.6720 C.3   124  GLU124      0.1163
     79  CD       -36.7320   -4.8370  -43.2550 C.2   124  GLU124      0.3649
     80  OE1      -37.5010   -3.9160  -42.8970 O.co2 124  GLU124     -0.2457
     81  OE2      -35.8100   -4.6790  -44.0770 O.co2 124  GLU124     -0.2457
     82  N        -30.0910   -5.8040  -52.6600 N.3   201  HIS201     -0.1241
     83  CA       -29.5990   -6.7860  -51.7030 C.3   201  HIS201      0.1621
     84  C        -28.0900   -6.8310  -51.6720 C.2   201  HIS201      0.2264
     85  O        -27.4990   -6.8440  -52.7060 O.2   201  HIS201     -0.2867
     86  CB       -30.1760   -8.1480  -52.0740 C.3   201  HIS201      0.0745
     87  CG       -29.9350   -9.2140  -51.0560 C.ar  201  HIS201      0.0817
     88  ND1      -30.2440   -9.0600  -49.7270 N.ar  201  HIS201     -0.2268
     89  CD2      -29.4420  -10.4600  -51.1750 C.ar  201  HIS201      0.1154
     90  CE1      -29.9460  -10.1610  -49.0700 C.ar  201  HIS201      0.1986
     91  NE2      -29.4600  -11.0260  -49.9300 N.ar  201  HIS201     -0.2212
     92  N        -28.8190  -16.3480  -47.0650 N.3   223  TRP223     -0.1241
     93  CA       -30.1240  -16.9270  -46.8130 C.3   223  TRP223      0.1605
     94  C        -30.0980  -18.4020  -46.4370 C.2   223  TRP223      0.2264
     95  O        -31.0670  -19.1080  -46.7150 O.2   223  TRP223     -0.2867
     96  CB       -31.0490  -16.6740  -48.0220 C.3   223  TRP223      0.0550
     97  CG       -31.4470  -15.2260  -48.2670 C.ar  223  TRP223      0.0003
     98  CD1      -31.2680  -14.1440  -47.4350 C.ar  223  TRP223      0.0946
     99  CD2      -32.1420  -14.7360  -49.4210 C.ar  223  TRP223      0.0152
    100  NE1      -31.8240  -13.0110  -48.0090 N.ar  223  TRP223     -0.2442
    101  CE2      -32.3650  -13.3510  -49.2260 C.ar  223  TRP223      0.0810
    102  CE3      -32.5800  -15.3380  -50.6190 C.ar  223  TRP223      0.0012
    103  CZ2      -33.0170  -12.5650  -50.1800 C.ar  223  TRP223      0.0191
    104  CZ3      -33.2220  -14.5430  -51.5760 C.ar  223  TRP223      0.0001
    105  CH2      -33.4370  -13.1750  -51.3420 C.ar  223  TRP223      0.0015
@<TRIPOS>BOND
     1    85    84    2
     2    82    83    1
     3    86    83    1
     4    86    87    1
     5    49    48    2
     6    83    84    1
     7   104   105   ar
     8   104   102   ar
     9   105   103   ar
    10    50    51    1
    11    50    47    1
    12    89    87   ar
    13    89    91   ar
    14    87    88   ar
    15    51    52   ar
    16    51    53   ar
    17    48    47    1
    18   102    99   ar
    19    52    54   ar
    20    53    55   ar
    21   103   101   ar
    22    47    46    1
    23    54    55   ar
    24    91    90   ar
    25    88    90   ar
    26    39    38    2
    27    99   101   ar
    28    99    97   ar
    29   101   100   ar
    30    46    38   am
    31    38    37    1
    32    97    96    1
    33    97    98   ar
    34    96    93    1
    35   100    98   ar
    36    40    37    1
    37    40    41    1
    38    35    34    1
    39    37    36    1
    40    34    31    1
    41    92    93    1
    42    93    94    1
    43    95    94    2
    44    41    42   ar
    45    41    43   ar
    46    33    32    2
    47    32    31    1
    48    42    44   ar
    49    31    30    1
    50     8     7    2
    51    43    45   ar
    52     7     9   am
    53     7     6    1
    54    44    45   ar
    55    81    79   ar
    56     6     5    1
    57    61    60    1
    58    60    57    1
    59    59    58    2
    60    27    28    1
    61    27    26    1
    62    79    80   ar
    63    79    78    1
    64    29    28    2
    65    56    57    1
    66    78    77    1
    67     5     2    1
    68    57    58    1
    69    58    62   am
    70    23    22    2
    71     1     2    1
    72    65    64    2
    73    26    22   am
    74    70    71    1
    75    70    69    1
    76    13    12    2
    77    22    21    1
    78    64    69   am
    79    64    63    1
    80     2     3    1
    81    71    72    2
    82    71    73   am
    83    62    63    1
    84    73    74    1
    85    77    74    1
    86    63    66    1
    87    10     3   am
    88    10    11    1
    89     3     4    2
    90    20    21    1
    91    20    16   am
    92    12    11    1
    93    12    14   am
    94    74    75    1
    95    21    24    1
    96    15    16    1
    97    15    14    1
    98    15    18    1
    99    16    17    2
   100    19    18    1
   101    66    68    1
   102    66    67    1
   103    24    25    1
   104    75    76    2
