@<TRIPOS>MOLECULE
tmp/3ai9A00.pdb
 146 143 0 0 0
SMALL
GASTEIGER

@<TRIPOS>ATOM
      1  N         30.5880   37.2010   21.8380 N.3    35  LEU35      -0.1245
      2  CA        30.6650   38.6520   21.5980 C.3    35  LEU35       0.1561
      3  C         30.0330   39.0140   20.2430 C.2    35  LEU35       0.2260
      4  O         29.2130   39.9420   20.1320 O.2    35  LEU35      -0.2867
      5  CB        32.1300   39.1340   21.6620 C.3    35  LEU35       0.0270
      6  CG        32.3640   40.6210   21.2890 C.3    35  LEU35       0.0019
      7  CD1       31.5200   41.5590   22.1930 C.3    35  LEU35       0.0001
      8  CD2       33.8510   40.9780   21.4060 C.3    35  LEU35       0.0001
      9  N         35.1630   55.4590   12.5650 N.3   139  TYR139     -0.1227
     10  CA        35.8220   54.4640   13.3720 C.3   139  TYR139      0.1736
     11  C         35.4700   54.8020   14.8260 C.2   139  TYR139      0.2595
     12  O         35.8010   55.8790   15.3210 O.2   139  TYR139     -0.2718
     13  CB        37.3490   54.4590   13.0800 C.3   139  TYR139      0.0548
     14  CG        38.2190   53.5360   13.9400 C.ar  139  TYR139     -0.0200
     15  CD1       37.6930   52.3770   14.5500 C.ar  139  TYR139     -0.0009
     16  CD2       39.5760   53.7910   14.0960 C.ar  139  TYR139     -0.0009
     17  CE1       38.4790   51.5280   15.3460 C.ar  139  TYR139      0.0417
     18  CE2       40.3780   52.9470   14.8790 C.ar  139  TYR139      0.0417
     19  CZ        39.8140   51.8120   15.4880 C.ar  139  TYR139      0.1957
     20  OH        40.6080   50.9850   16.2730 O.3   139  TYR139     -0.2866
     21  N         34.7480   53.8980   15.4840 N.am  140  LEU140     -0.1966
     22  CA        34.3550   54.1140   16.8700 C.3   140  LEU140      0.1728
     23  C         35.5460   53.7540   17.7150 C.2   140  LEU140      0.2616
     24  O         35.9180   52.5920   17.7820 O.2   140  LEU140     -0.2715
     25  CB        33.1360   53.2720   17.2230 C.3   140  LEU140      0.0311
     26  CG        31.9120   53.6350   16.3650 C.3   140  LEU140      0.0022
     27  CD1       30.7010   52.7750   16.6590 C.3   140  LEU140      0.0001
     28  CD2       31.5200   55.0830   16.5340 C.3   140  LEU140      0.0001
     29  N         36.1530   54.7490   18.3440 N.am  141  HIS141     -0.1973
     30  CA        37.4300   54.5730   19.0290 C.3   141  HIS141      0.1656
     31  C         37.4670   55.5440   20.1810 C.2   141  HIS141      0.2291
     32  O         37.1660   56.7240   20.0210 O.2   141  HIS141     -0.2864
     33  CB        38.5800   54.8690   18.0750 C.3   141  HIS141      0.0771
     34  CG        39.9330   54.5800   18.6430 C.ar  141  HIS141      0.0820
     35  ND1       40.3980   53.2970   18.8370 N.ar  141  HIS141     -0.2267
     36  CD2       40.9350   55.4060   19.0330 C.ar  141  HIS141      0.1154
     37  CE1       41.6240   53.3440   19.3340 C.ar  141  HIS141      0.1986
     38  NE2       41.9750   54.6120   19.4590 N.ar  141  HIS141     -0.2212
     39  N         33.8810   48.8940   14.3080 N.3   158  ILE158     -0.1231
     40  CA        33.9630   48.5410   15.7080 C.3   158  ILE158      0.1692
     41  C         34.9320   47.3910   15.8450 C.2   158  ILE158      0.2593
     42  O         34.7850   46.3670   15.1960 O.2   158  ILE158     -0.2718
     43  CB        32.5940   48.0720   16.2170 C.3   158  ILE158      0.0266
     44  CG1       31.5470   49.1580   15.9870 C.3   158  ILE158      0.0019
     45  CG2       32.6600   47.8040   17.6830 C.3   158  ILE158      0.0020
     46  CD1       30.4990   48.6300   15.1340 C.3   158  ILE158      0.0001
     47  N         35.9420   47.5640   16.6770 N.am  159  GLY159     -0.1942
     48  CA        36.9510   46.5260   16.8880 C.3   159  GLY159      0.2014
     49  C         36.4980   45.5880   17.9790 C.2   159  GLY159      0.2639
     50  O         35.4430   45.8140   18.5870 O.2   159  GLY159     -0.2714
     51  N         37.2570   44.5320   18.2500 N.am  160  ASP160     -0.1957
     52  CA        36.8300   43.6480   19.3270 C.3   160  ASP160      0.1840
     53  C         37.6450   43.8450   20.6050 C.2   160  ASP160      0.2622
     54  O         38.2430   44.9230   20.8290 O.2   160  ASP160     -0.2715
     55  CB        36.8290   42.1860   18.8690 C.3   160  ASP160      0.1450
     56  CG        38.2190   41.6780   18.4910 C.2   160  ASP160      0.3671
     57  OD1       39.2400   42.3760   18.7400 O.co2 160  ASP160     -0.2456
     58  OD2       38.2700   40.5550   17.9430 O.co2 160  ASP160     -0.2456
     59  N         37.6730   42.7940   21.4350 N.am  161  HIS161     -0.1973
     60  CA        38.4260   42.8190   22.6960 C.3   161  HIS161      0.1656
     61  C         39.8760   43.2620   22.5010 C.2   161  HIS161      0.2291
     62  O         40.3210   44.1910   23.1730 O.2   161  HIS161     -0.2864
     63  CB        38.2830   41.5040   23.5180 C.3   161  HIS161      0.0771
     64  CG        38.4730   40.2300   22.7250 C.ar  161  HIS161      0.0820
     65  ND1       37.5670   39.7890   21.7740 N.ar  161  HIS161     -0.2267
     66  CD2       39.4520   39.2850   22.7750 C.ar  161  HIS161      0.1154
     67  CE1       37.9990   38.6490   21.2540 C.ar  161  HIS161      0.1986
     68  NE2       39.1360   38.3180   21.8450 N.ar  161  HIS161     -0.2212
     69  N         40.9720   44.4600   19.4780 N.3   163  GLY163     -0.1225
     70  CA        40.9140   45.5660   18.5270 C.3   163  GLY163      0.1811
     71  C         41.3610   45.2800   17.0980 C.2   163  GLY163      0.2280
     72  O         41.9340   44.2260   16.7880 O.2   163  GLY163     -0.2866
     73  N         35.3360   58.6220   16.0980 N.3   180  ILE180     -0.1231
     74  CA        34.3400   59.2170   16.9780 C.3   180  ILE180      0.1692
     75  C         34.2660   58.4820   18.3180 C.2   180  ILE180      0.2593
     76  O         34.3840   57.2570   18.3570 O.2   180  ILE180     -0.2718
     77  CB        32.9260   59.3770   16.2690 C.3   180  ILE180      0.0266
     78  CG1       32.5630   58.1830   15.4440 C.3   180  ILE180      0.0019
     79  CG2       32.9420   60.4940   15.2520 C.3   180  ILE180      0.0020
     80  CD1       31.1360   58.3230   14.7570 C.3   180  ILE180      0.0001
     81  N         34.1050   59.2250   19.4190 N.am  181  SER181     -0.1938
     82  CA        34.0110   58.6340   20.7550 C.3   181  SER181      0.2055
     83  C         32.5760   58.6860   21.2540 C.2   181  SER181      0.2643
     84  O         31.8760   59.6770   21.0280 O.2   181  SER181     -0.2714
     85  CB        34.9250   59.3310   21.7580 C.3   181  SER181      0.2130
     86  OG        34.8600   58.6890   23.0450 O.3   181  SER181     -0.2179
     87  N         32.1650   57.6070   21.9220 N.am  182  LEU182     -0.1963
     88  CA        30.8110   57.4690   22.4720 C.3   182  LEU182      0.1728
     89  C         30.7970   57.5200   24.0160 C.2   182  LEU182      0.2616
     90  O         29.7220   57.4970   24.6310 O.2   182  LEU182     -0.2715
     91  CB        30.1810   56.1340   22.0020 C.3   182  LEU182      0.0311
     92  CG        29.8980   55.9390   20.5030 C.3   182  LEU182      0.0022
     93  CD1       29.4830   54.5420   20.2300 C.3   182  LEU182      0.0001
     94  CD2       28.8370   56.8780   20.0150 C.3   182  LEU182      0.0001
     95  N         31.9800   57.5640   24.6450 N.am  183  SER183     -0.1950
     96  CA        32.0840   57.2720   26.0670 C.3   183  SER183      0.1924
     97  C         33.4970   57.5110   26.4860 C.2   183  SER183      0.2314
     98  O         34.4010   57.3040   25.6980 O.2   183  SER183     -0.2863
     99  CB        31.6770   55.8080   26.3770 C.3   183  SER183      0.2116
    100  OG        31.8900   55.4740   27.7460 O.3   183  SER183     -0.2180
    101  N         34.8320   55.7350   28.7610 N.3   185  LEU185     -0.1231
    102  CA        35.3640   54.4200   29.0700 C.3   185  LEU185      0.1693
    103  C         35.4780   53.5200   27.8300 C.2   185  LEU185      0.2592
    104  O         34.7390   53.6730   26.8520 O.2   185  LEU185     -0.2718
    105  CB        34.4900   53.7570   30.1350 C.3   185  LEU185      0.0284
    106  CG        34.2790   54.4930   31.4570 C.3   185  LEU185      0.0019
    107  CD1       33.4760   53.6100   32.3690 C.3   185  LEU185      0.0001
    108  CD2       35.6100   54.8170   32.1190 C.3   185  LEU185      0.0001
    109  N         36.4070   52.5690   27.8850 N.am  186  GLU186     -0.1966
    110  CA        36.4710   51.4790   26.9010 C.3   186  GLU186      0.1733
    111  C         35.3470   50.4460   27.1050 C.2   186  GLU186      0.2616
    112  O         35.3150   49.7160   28.1000 O.2   186  GLU186     -0.2715
    113  CB        37.8370   50.7960   26.9580 C.3   186  GLU186      0.0429
    114  CG        38.2330   50.1090   25.6570 C.3   186  GLU186      0.1163
    115  CD        39.7140   49.6540   25.6660 C.2   186  GLU186      0.3649
    116  OE1       40.5760   50.3290   26.3230 O.co2 186  GLU186     -0.2457
    117  OE2       40.0110   48.6120   25.0120 O.co2 186  GLU186     -0.2457
    118  N         34.4300   50.3920   26.1520 N.am  187  LEU187     -0.1963
    119  CA        33.2700   49.4950   26.2180 C.3   187  LEU187      0.1728
    120  C         33.4000   48.2240   25.3780 C.2   187  LEU187      0.2616
    121  O         34.1580   48.1800   24.4210 O.2   187  LEU187     -0.2715
    122  CB        32.0200   50.2380   25.7210 C.3   187  LEU187      0.0311
    123  CG        31.8320   51.6410   26.2930 C.3   187  LEU187      0.0022
    124  CD1       30.7430   52.3140   25.5170 C.3   187  LEU187      0.0001
    125  CD2       31.5130   51.5580   27.7950 C.3   187  LEU187      0.0001
    126  N         32.6120   47.2110   25.7110 N.am  188  HIS188     -0.1959
    127  CA        32.3960   46.1250   24.7650 C.3   188  HIS188      0.1787
    128  C         31.8320   46.6330   23.4260 C.2   188  HIS188      0.2620
    129  O         31.0150   47.5690   23.3800 O.2   188  HIS188     -0.2715
    130  CB        31.5020   45.0310   25.3710 C.3   188  HIS188      0.0785
    131  CG        32.1640   44.2610   26.4710 C.ar  188  HIS188      0.0821
    132  ND1       33.5160   43.9850   26.4710 N.ar  188  HIS188     -0.2267
    133  CD2       31.6680   43.6960   27.5990 C.ar  188  HIS188      0.1154
    134  CE1       33.8290   43.3070   27.5640 C.ar  188  HIS188      0.1986
    135  NE2       32.7270   43.1170   28.2660 N.ar  188  HIS188     -0.2212
    136  N         32.2760   45.9930   22.3470 N.am  189  ALA189     -0.1977
    137  CA        31.8880   46.3540   21.0060 C.3   189  ALA189      0.1597
    138  C         30.3900   46.4620   20.8720 C.2   189  ALA189      0.2287
    139  O         29.9060   47.3980   20.2380 O.2   189  ALA189     -0.2864
    140  CB        32.4210   45.3440   20.0160 C.3   189  ALA189      0.0319
    141  N         28.8840   49.7080   22.0540 N.3   192  CYS192     -0.1235
    142  CA        29.0540   50.7990   21.0670 C.3   192  CYS192      0.1677
    143  C         27.9050   50.9390   20.1420 C.2   192  CYS192      0.2270
    144  O         27.4980   52.0380   19.8280 O.2   192  CYS192     -0.2867
    145  CB        30.2880   50.6250   20.2190 C.3   192  CYS192      0.0956
    146  SG        31.5830   50.6130   21.2770 S.3   192  CYS192     -0.0801
@<TRIPOS>BOND
     1     9    10    1
     2    13    10    1
     3    13    14    1
     4    10    11    1
     5    14    16   ar
     6    14    15   ar
     7    16    18   ar
     8    39    40    1
     9    15    17   ar
    10    80    78    1
    11    11    12    2
    12    11    21   am
    13    18    19   ar
    14    46    44    1
    15    42    41    2
    16    79    77    1
    17    17    19   ar
    18    78    77    1
    19    21    22    1
    20    19    20    1
    21    40    41    1
    22    40    43    1
    23    41    47   am
    24    44    43    1
    25    73    74    1
    26    43    45    1
    27    77    74    1
    28    26    28    1
    29    26    27    1
    30    26    25    1
    31    47    48    1
    32    72    71    2
    33    22    25    1
    34    22    23    1
    35    48    49    1
    36    74    75    1
    37    71    70    1
    38    23    24    2
    39    23    29   am
    40    58    56   ar
    41    49    51   am
    42    49    50    2
    43    33    34    1
    44    33    30    1
    45    51    52    1
    46    75    76    2
    47    75    81   am
    48    29    30    1
    49    56    57   ar
    50    56    55    1
    51    70    69    1
    52    34    35   ar
    53    34    36   ar
    54    35    37   ar
    55    55    52    1
    56    30    31    1
    57    36    38   ar
    58    52    53    1
    59    37    38   ar
    60    81    82    1
    61   144   143    2
    62    94    92    1
    63   140   137    1
    64    32    31    2
    65     4     3    2
    66   143   142    1
    67   145   142    1
    68   145   146    1
    69    93    92    1
    70   139   138    2
    71     3     2    1
    72    92    91    1
    73    53    54    2
    74    53    59   am
    75    82    83    1
    76    82    85    1
    77   138   137    1
    78   137   136    1
    79    84    83    2
    80   142   141    1
    81    67    65   ar
    82    67    68   ar
    83    83    87   am
    84     6     8    1
    85     6     5    1
    86     6     7    1
    87    59    60    1
    88     2     5    1
    89     2     1    1
    90    85    86    1
    91    65    64   ar
    92    68    66   ar
    93    87    88    1
    94    91    88    1
    95   136   128   am
    96    88    89    1
    97    61    60    1
    98    61    62    2
    99    60    63    1
   100    64    66   ar
   101    64    63    1
   102   129   128    2
   103   128   127    1
   104    89    90    2
   105    89    95   am
   106   121   120    2
   107    95    96    1
   108   127   130    1
   109   127   126    1
   110   117   115   ar
   111   130   131    1
   112   120   126   am
   113   120   119    1
   114   124   123    1
   115   114   115    1
   116   114   113    1
   117   115   116   ar
   118    98    97    2
   119   122   119    1
   120   122   123    1
   121    96    99    1
   122    96    97    1
   123   118   119    1
   124   118   111   am
   125   123   125    1
   126    99   100    1
   127   132   131   ar
   128   132   134   ar
   129   131   133   ar
   130   104   103    2
   131   110   113    1
   132   110   111    1
   133   110   109    1
   134   111   112    2
   135   134   135   ar
   136   133   135   ar
   137   103   109   am
   138   103   102    1
   139   101   102    1
   140   102   105    1
   141   105   106    1
   142   106   108    1
   143   106   107    1
