@<TRIPOS>MOLECULE
tmp/3aibE00.pdb
 138 131 0 0 0
SMALL
GASTEIGER

@<TRIPOS>ATOM
      1  N        173.0660  -12.5630  155.7250 N.3   186  GLY186     -0.1210
      2  CA       172.7740  -14.0060  155.6860 C.3   186  GLY186      0.1956
      3  C        172.2810  -14.3920  154.3110 C.2   186  GLY186      0.2611
      4  O        172.3790  -13.5940  153.3620 O.2   186  GLY186     -0.2717
      5  N        171.7560  -15.6070  154.1970 N.am  187  TYR187     -0.1976
      6  CA       171.1790  -16.0920  152.9300 C.3   187  TYR187      0.1639
      7  C        170.3360  -17.3170  153.1890 C.2   187  TYR187      0.2290
      8  O        170.5700  -18.0650  154.1410 O.2   187  TYR187     -0.2864
      9  CB       172.2810  -16.3980  151.9190 C.3   187  TYR187      0.0560
     10  CG       173.3650  -17.3490  152.4190 C.ar  187  TYR187     -0.0198
     11  CD1      173.1230  -18.7130  152.4960 C.ar  187  TYR187     -0.0009
     12  CD2      174.6170  -16.8720  152.8110 C.ar  187  TYR187     -0.0009
     13  CE1      174.0890  -19.5640  152.9400 C.ar  187  TYR187      0.0417
     14  CE2      175.5790  -17.7130  153.2440 C.ar  187  TYR187      0.0417
     15  CZ       175.3260  -19.0730  153.3040 C.ar  187  TYR187      0.1957
     16  OH       176.2750  -19.9890  153.7580 O.3   187  TYR187     -0.2866
     17  N        170.9600  -23.0120  152.7290 N.3   190  LEU190     -0.1245
     18  CA       172.1670  -23.4700  153.3950 C.3   190  LEU190      0.1561
     19  C        172.5610  -24.9280  153.1140 C.2   190  LEU190      0.2260
     20  O        173.5820  -25.2120  152.4450 O.2   190  LEU190     -0.2867
     21  CB       172.0390  -23.2810  154.9010 C.3   190  LEU190      0.0270
     22  CG       173.2150  -23.7240  155.7780 C.3   190  LEU190      0.0019
     23  CD1      174.3720  -22.8420  155.5690 C.3   190  LEU190      0.0001
     24  CD2      172.8850  -23.6750  157.2210 C.3   190  LEU190      0.0001
     25  N        169.6240  -22.4900  165.9550 N.3   234  ASP234     -0.1225
     26  CA       170.6370  -22.8760  164.9750 C.3   234  ASP234      0.1805
     27  C        170.5290  -22.1220  163.6770 C.2   234  ASP234      0.2597
     28  O        169.4500  -21.8250  163.2970 O.2   234  ASP234     -0.2718
     29  CB       170.4260  -24.2820  164.5970 C.3   234  ASP234      0.1424
     30  CG       171.4690  -24.7430  163.6240 C.2   234  ASP234      0.3668
     31  OD1      172.6350  -24.8920  164.0950 O.co2 234  ASP234     -0.2456
     32  OD2      171.1220  -24.9410  162.3890 O.co2 234  ASP234     -0.2456
     33  N        171.6290  -21.8340  162.9870 N.am  235  ALA235     -0.1979
     34  CA       171.5940  -21.1200  161.7090 C.3   235  ALA235      0.1597
     35  C        170.6190  -19.9520  161.5840 C.2   235  ALA235      0.2287
     36  O        169.8480  -19.9240  160.6480 O.2   235  ALA235     -0.2864
     37  CB       171.3890  -22.0680  160.5830 C.3   235  ALA235      0.0319
     38  N        171.1050  -16.9240  160.5370 N.3   237  ASP237     -0.1225
     39  CA       171.2070  -16.0690  159.4070 C.3   237  ASP237      0.1805
     40  C        170.7590  -16.7730  158.1410 C.2   237  ASP237      0.2597
     41  O        170.9580  -16.2480  157.0180 O.2   237  ASP237     -0.2718
     42  CB       172.6370  -15.5900  159.2630 C.3   237  ASP237      0.1424
     43  CG       173.0230  -14.5850  160.3040 C.2   237  ASP237      0.3668
     44  OD1      172.1650  -14.0570  160.9950 O.co2 237  ASP237     -0.2456
     45  OD2      174.2160  -14.2920  160.4020 O.co2 237  ASP237     -0.2456
     46  N        170.1460  -17.9470  158.2980 N.am  238  ASN238     -0.1974
     47  CA       169.6280  -18.7050  157.1230 C.3   238  ASN238      0.1688
     48  C        168.1230  -18.9850  157.0460 C.2   238  ASN238      0.2292
     49  O        167.6940  -19.7370  156.1790 O.2   238  ASN238     -0.2864
     50  CB       170.4000  -19.9880  156.9860 C.3   238  ASN238      0.1181
     51  CG       171.8340  -19.7380  157.0680 C.2   238  ASN238      0.2629
     52  OD1      172.3420  -19.0680  156.1980 O.2   238  ASN238     -0.2716
     53  ND2      172.5100  -20.2170  158.1300 N.am  238  ASN238     -0.0877
     54  N        172.8360  -18.7780  167.4330 N.3   272  GLU272     -0.1245
     55  CA       174.0050  -18.8240  166.5500 C.3   272  GLU272      0.1567
     56  C        173.7860  -17.8960  165.3520 C.2   272  GLU272      0.2260
     57  O        173.3930  -18.3070  164.2500 O.2   272  GLU272     -0.2867
     58  CB       174.2860  -20.2130  166.0490 C.3   272  GLU272      0.0388
     59  CG       175.5050  -20.1910  165.1710 C.3   272  GLU272      0.1160
     60  CD       175.4760  -21.3140  164.0930 C.2   272  GLU272      0.3649
     61  OE1      174.3700  -21.7770  163.6600 O.co2 272  GLU272     -0.2457
     62  OE2      176.5850  -21.7430  163.6940 O.co2 272  GLU272     -0.2457
     63  N        175.7600  -15.1340  163.2120 N.3   274  TRP274     -0.1241
     64  CA       177.0440  -14.6240  162.8620 C.3   274  TRP274      0.1605
     65  C        177.1250  -13.1460  162.3930 C.2   274  TRP274      0.2264
     66  O        178.1990  -12.5680  162.4550 O.2   274  TRP274     -0.2867
     67  CB       177.6850  -15.5390  161.8190 C.3   274  TRP274      0.0550
     68  CG       177.9470  -16.8840  162.3290 C.ar  274  TRP274      0.0003
     69  CD1      177.1450  -17.9680  162.1830 C.ar  274  TRP274      0.0946
     70  CD2      179.0860  -17.3250  163.0660 C.ar  274  TRP274      0.0152
     71  NE1      177.7110  -19.0700  162.7860 N.ar  274  TRP274     -0.2442
     72  CE2      178.9020  -18.6820  163.3410 C.ar  274  TRP274      0.0810
     73  CE3      180.2410  -16.7110  163.5040 C.ar  274  TRP274      0.0012
     74  CZ2      179.8040  -19.4060  164.0370 C.ar  274  TRP274      0.0191
     75  CZ3      181.1180  -17.4390  164.1840 C.ar  274  TRP274      0.0001
     76  CH2      180.8990  -18.7720  164.4510 C.ar  274  TRP274      0.0015
     77  N        180.9880  -12.1800  168.5600 N.3   294  ASN294     -0.1240
     78  CA       181.8390  -12.5050  167.4200 C.3   294  ASN294      0.1653
     79  C        183.1790  -11.7640  167.3430 C.2   294  ASN294      0.2266
     80  O        184.2120  -12.4170  167.0620 O.2   294  ASN294     -0.2867
     81  CB       181.0860  -12.5040  166.0540 C.3   294  ASN294      0.1155
     82  CG       181.8560  -13.3170  164.9850 C.2   294  ASN294      0.2627
     83  OD1      182.4960  -14.3590  165.2910 O.2   294  ASN294     -0.2716
     84  ND2      181.8680  -12.8080  163.7530 N.am  294  ASN294     -0.0877
     85  N        185.6540  -13.2330  169.8630 N.3   297  ARG297     -0.1245
     86  CA       186.0740  -14.5160  169.3020 C.3   297  ARG297      0.1563
     87  C        187.1120  -14.3360  168.1920 C.2   297  ARG297      0.2260
     88  O        188.1170  -15.0140  168.1860 O.2   297  ARG297     -0.2867
     89  CB       184.8490  -15.1820  168.7420 C.3   297  ARG297      0.0307
     90  CG       185.1150  -16.4290  168.0970 C.3   297  ARG297      0.0489
     91  CD       184.0690  -16.6340  167.0610 C.3   297  ARG297      0.2205
     92  NE       184.7250  -17.4020  166.0100 N.pl3 297  ARG297     -0.0865
     93  CZ       184.9010  -16.9710  164.7640 C.cat 297  ARG297      0.5346
     94  NH1      184.4220  -15.7620  164.3940 N.pl3 297  ARG297      0.1354
     95  NH2      185.5240  -17.7910  163.8930 N.pl3 297  ARG297      0.1354
     96  N        181.6970  -26.7710  165.2010 N.3   345  ASP345     -0.1225
     97  CA       182.0620  -26.5880  163.7810 C.3   345  ASP345      0.1805
     98  C        183.1630  -25.5550  163.6770 C.2   345  ASP345      0.2598
     99  O        184.2280  -25.8270  163.0190 O.2   345  ASP345     -0.2718
    100  CB       180.9000  -26.0790  162.9590 C.3   345  ASP345      0.1424
    101  CG       180.0120  -25.1910  163.7640 C.2   345  ASP345      0.3668
    102  OD1      180.4410  -24.7640  164.8590 O.co2 345  ASP345     -0.2456
    103  OD2      178.8710  -24.9350  163.3390 O.co2 345  ASP345     -0.2456
    104  N        182.9320  -24.3850  164.3140 N.am  346  SER346     -0.1952
    105  CA       183.8120  -23.2820  164.1570 C.3   346  SER346      0.1924
    106  C        185.1700  -23.6160  164.7310 C.2   346  SER346      0.2314
    107  O        185.3100  -23.8530  165.9280 O.2   346  SER346     -0.2863
    108  CB       183.2570  -22.1380  164.8970 C.3   346  SER346      0.2116
    109  OG       184.1590  -21.0500  164.7240 O.3   346  SER346     -0.2180
    110  N        185.8180  -28.3480  162.1180 N.3   349  GLN349     -0.1231
    111  CA       185.7000  -28.9270  160.8030 C.3   349  GLN349      0.1698
    112  C        186.5230  -28.1240  159.8020 C.2   349  GLN349      0.2592
    113  O        187.0780  -28.7070  158.8530 O.2   349  GLN349     -0.2718
    114  CB       184.2690  -29.0330  160.3700 C.3   349  GLN349      0.0381
    115  CG       183.5330  -27.7220  160.2700 C.3   349  GLN349      0.0905
    116  CD       181.9940  -27.9530  160.0960 C.2   349  GLN349      0.2608
    117  OE1      181.3620  -28.6660  160.9050 O.2   349  GLN349     -0.2717
    118  NE2      181.4030  -27.3390  159.0190 N.am  349  GLN349     -0.0878
    119  N        186.5990  -26.7910  159.9950 N.am  350  ASP350     -0.1974
    120  CA       187.4770  -25.9270  159.2120 C.3   350  ASP350      0.1709
    121  C        188.8780  -26.5340  159.0790 C.2   350  ASP350      0.2293
    122  O        189.4450  -26.5970  157.9960 O.2   350  ASP350     -0.2864
    123  CB       187.6470  -24.6250  159.9680 C.3   350  ASP350      0.1436
    124  CG       186.4130  -23.7900  159.9330 C.2   350  ASP350      0.3671
    125  OD1      186.0510  -23.3810  158.7870 O.co2 350  ASP350     -0.2456
    126  OD2      185.7810  -23.5270  161.0160 O.co2 350  ASP350     -0.2456
    127  N        182.2600  -29.0690  152.8280 N.3   367  TYR367     -0.1241
    128  CA       182.7320  -29.9690  153.8850 C.3   367  TYR367      0.1605
    129  C        182.2260  -31.3590  153.6290 C.2   367  TYR367      0.2264
    130  O        181.9980  -32.1470  154.5790 O.2   367  TYR367     -0.2867
    131  CB       182.2140  -29.5530  155.2360 C.3   367  TYR367      0.0534
    132  CG       182.7020  -28.2310  155.6740 C.ar  367  TYR367     -0.0201
    133  CD1      181.8230  -27.1110  155.6540 C.ar  367  TYR367     -0.0009
    134  CD2      184.0140  -28.0820  156.1660 C.ar  367  TYR367     -0.0009
    135  CE1      182.2320  -25.8430  156.1260 C.ar  367  TYR367      0.0417
    136  CE2      184.4640  -26.8420  156.6180 C.ar  367  TYR367      0.0417
    137  CZ       183.5480  -25.7160  156.6010 C.ar  367  TYR367      0.1957
    138  OH       183.9230  -24.4460  156.9890 O.3   367  TYR367     -0.2866
@<TRIPOS>BOND
     1     9    10    1
     2     9     6    1
     3    10    11   ar
     4    10    12   ar
     5    20    19    2
     6    11    13   ar
     7    17    18    1
     8    12    14   ar
     9   127   128    1
    10     6     7    1
    11     6     5    1
    12    13    15   ar
    13    19    18    1
    14     7     8    2
    15    14    15   ar
    16    15    16    1
    17     4     3    2
    18    18    21    1
    19   129   128    1
    20   129   130    2
    21   128   131    1
    22     5     3   am
    23     3     2    1
    24    21    22    1
    25   131   132    1
    26    23    22    1
    27   133   132   ar
    28   133   135   ar
    29   132   134   ar
    30     2     1    1
    31    22    24    1
    32   135   137   ar
    33   134   136   ar
    34    49    48    2
    35    52    51    2
    36   137   136   ar
    37   137   138    1
    38    50    51    1
    39    50    47    1
    40    41    40    2
    41    48    47    1
    42    51    53   am
    43    47    46    1
    44   122   121    2
    45    40    46   am
    46    40    39    1
    47   125   124   ar
    48   113   112    2
    49   118   116   am
    50   121   120    1
    51   120   123    1
    52   120   119    1
    53    42    39    1
    54    42    43    1
    55    39    38    1
    56   112   119   am
    57   112   111    1
    58   124   123    1
    59   124   126   ar
    60   116   115    1
    61   116   117    2
    62   115   114    1
    63    43    45   ar
    64    43    44   ar
    65   114   111    1
    66    37    34    1
    67    36    35    2
    68   111   110    1
    69    35    34    1
    70    34    33    1
    71    67    68    1
    72    67    64    1
    73    69    68   ar
    74    69    71   ar
    75    68    70   ar
    76    32    30   ar
    77    65    66    2
    78    65    64    1
    79    71    72   ar
    80    64    63    1
    81   100   101    1
    82   100    97    1
    83    33    27   am
    84    99    98    2
    85    70    72   ar
    86    70    73   ar
    87    28    27    2
    88   103   101   ar
    89    72    74   ar
    90    73    75   ar
    91    30    31   ar
    92    30    29    1
    93    61    60   ar
    94    27    26    1
    95    98    97    1
    96    98   104   am
    97    62    60   ar
    98    84    82   am
    99   101   102   ar
   100    97    96    1
   101    95    93    1
   102    74    76   ar
   103    60    59    1
   104   105   104    1
   105   105   106    1
   106   105   108    1
   107    75    76   ar
   108    57    56    2
   109    94    93    1
   110    29    26    1
   111   109   108    1
   112   106   107    2
   113    93    92    2
   114    26    25    1
   115    82    83    2
   116    82    81    1
   117    59    58    1
   118    56    55    1
   119    92    91    1
   120    58    55    1
   121    81    78    1
   122    55    54    1
   123    91    90    1
   124    80    79    2
   125    79    78    1
   126    78    77    1
   127    90    89    1
   128    88    87    2
   129    87    86    1
   130    89    86    1
   131    86    85    1
