@<TRIPOS>MOLECULE
tmp/3aicC01.pdb
 231 220 0 0 0
SMALL
GASTEIGER

@<TRIPOS>ATOM
      1  N        256.1500   56.7450  126.3060 N.3   139  LEU139     -0.1245
      2  CA       254.7310   56.7240  125.9780 C.3   139  LEU139      0.1561
      3  C        254.3160   57.9140  125.1420 C.2   139  LEU139      0.2260
      4  O        253.2680   57.9250  124.5070 O.2   139  LEU139     -0.2867
      5  CB       253.9500   56.7350  127.2980 C.3   139  LEU139      0.0270
      6  CG       253.5250   55.3860  127.8700 C.3   139  LEU139      0.0019
      7  CD1      252.5580   55.6850  128.9890 C.3   139  LEU139      0.0001
      8  CD2      252.8160   54.6620  126.7770 C.3   139  LEU139      0.0001
      9  N        261.7810   48.2750  136.5130 N.3   186  GLY186     -0.1210
     10  CA       260.9670   49.4430  136.1590 C.3   186  GLY186      0.1956
     11  C        261.8630   50.4050  135.3910 C.2   186  GLY186      0.2611
     12  O        262.9450   49.9900  134.9620 O.2   186  GLY186     -0.2717
     13  N        261.4520   51.6670  135.2010 N.am  187  TYR187     -0.1976
     14  CA       262.3030   52.6820  134.5600 C.3   187  TYR187      0.1639
     15  C        261.8110   54.0900  134.9130 C.2   187  TYR187      0.2290
     16  O        260.6260   54.2740  135.2950 O.2   187  TYR187     -0.2864
     17  CB       262.2620   52.4990  133.0840 C.3   187  TYR187      0.0560
     18  CG       260.8380   52.4170  132.6010 C.ar  187  TYR187     -0.0198
     19  CD1      260.0100   53.5400  132.5670 C.ar  187  TYR187     -0.0009
     20  CD2      260.3110   51.2240  132.1800 C.ar  187  TYR187     -0.0009
     21  CE1      258.7050   53.4320  132.1320 C.ar  187  TYR187      0.0417
     22  CE2      259.0290   51.1400  131.7390 C.ar  187  TYR187      0.0417
     23  CZ       258.2410   52.2250  131.7150 C.ar  187  TYR187      0.1957
     24  OH       256.9670   52.0620  131.2650 O.3   187  TYR187     -0.2866
     25  N        258.1470   58.0440  132.8510 N.3   190  LEU190     -0.1231
     26  CA       256.9000   57.4410  132.4660 C.3   190  LEU190      0.1693
     27  C        256.0670   58.3410  131.6150 C.2   190  LEU190      0.2591
     28  O        255.8640   58.0130  130.4630 O.2   190  LEU190     -0.2718
     29  CB       256.1330   56.9610  133.6900 C.3   190  LEU190      0.0284
     30  CG       254.7630   56.4080  133.4060 C.3   190  LEU190      0.0019
     31  CD1      254.8860   55.0470  132.7620 C.3   190  LEU190      0.0001
     32  CD2      254.0490   56.4050  134.7460 C.3   190  LEU190      0.0001
     33  N        255.5850   59.4570  132.1720 N.am  191  LEU191     -0.1980
     34  CA       254.7640   60.4560  131.4590 C.3   191  LEU191      0.1596
     35  C        255.0540   61.8490  132.0080 C.2   191  LEU191      0.2287
     36  O        255.4310   61.9840  133.1750 O.2   191  LEU191     -0.2864
     37  CB       253.2690   60.1910  131.6620 C.3   191  LEU191      0.0297
     38  CG       252.5410   58.9260  131.1530 C.3   191  LEU191      0.0022
     39  CD1      251.2750   58.5960  132.0100 C.3   191  LEU191      0.0001
     40  CD2      252.1850   59.0160  129.6930 C.3   191  LEU191      0.0001
     41  N        247.2340   54.7040  148.1370 N.3   232  ARG232     -0.1245
     42  CA       247.7230   53.7840  147.1260 C.3   232  ARG232      0.1563
     43  C        248.9740   54.4220  146.5740 C.2   232  ARG232      0.2260
     44  O        248.9230   55.5720  146.1910 O.2   232  ARG232     -0.2867
     45  CB       246.6980   53.6750  146.0040 C.3   232  ARG232      0.0307
     46  CG       247.1850   53.0610  144.7000 C.3   232  ARG232      0.0489
     47  CD       246.0560   53.0360  143.6920 C.3   232  ARG232      0.2205
     48  NE       246.4470   52.4060  142.4310 N.pl3 232  ARG232     -0.0865
     49  CZ       247.0090   53.0430  141.3900 C.cat 232  ARG232      0.5346
     50  NH1      247.2490   54.3590  141.4400 N.pl3 232  ARG232      0.1354
     51  NH2      247.3230   52.3720  140.2840 N.pl3 232  ARG232      0.1354
     52  N        251.0350   55.1090  143.5610 N.3   234  ASP234     -0.1225
     53  CA       250.9080   54.9540  142.1070 C.3   234  ASP234      0.1805
     54  C        252.2700   54.8810  141.4380 C.2   234  ASP234      0.2597
     55  O        253.1740   55.5470  141.8780 O.2   234  ASP234     -0.2718
     56  CB       250.0900   56.1160  141.5380 C.3   234  ASP234      0.1424
     57  CG       250.1820   56.2630  139.9640 C.2   234  ASP234      0.3668
     58  OD1      249.3680   55.6570  139.2400 O.co2 234  ASP234     -0.2456
     59  OD2      251.0100   57.0560  139.4410 O.co2 234  ASP234     -0.2456
     60  N        252.3970   54.0780  140.3720 N.am  235  ALA235     -0.1979
     61  CA       253.6040   53.9930  139.5700 C.3   235  ALA235      0.1597
     62  C        254.8580   53.7950  140.3960 C.2   235  ALA235      0.2287
     63  O        255.8460   54.4660  140.1800 O.2   235  ALA235     -0.2864
     64  CB       253.7510   55.1980  138.7210 C.3   235  ALA235      0.0319
     65  N        257.1330   51.4890  140.1590 N.3   237  ASP237     -0.1225
     66  CA       258.3390   51.0850  139.4170 C.3   237  ASP237      0.1805
     67  C        258.9290   52.2290  138.5870 C.2   237  ASP237      0.2597
     68  O        259.8030   52.0230  137.7650 O.2   237  ASP237     -0.2718
     69  CB       258.0470   49.9440  138.4430 C.3   237  ASP237      0.1424
     70  CG       257.7710   48.6010  139.1140 C.2   237  ASP237      0.3668
     71  OD1      258.1660   48.3700  140.2770 O.co2 237  ASP237     -0.2456
     72  OD2      257.1660   47.7510  138.4190 O.co2 237  ASP237     -0.2456
     73  N        258.4440   53.4390  138.7640 N.am  238  ASN238     -0.1974
     74  CA       258.9360   54.5410  137.9650 C.3   238  ASN238      0.1688
     75  C        259.4220   55.7110  138.8060 C.2   238  ASN238      0.2292
     76  O        259.6350   56.7830  138.2670 O.2   238  ASN238     -0.2864
     77  CB       257.7960   55.0320  137.1050 C.3   238  ASN238      0.1181
     78  CG       257.1750   53.9310  136.3220 C.2   238  ASN238      0.2629
     79  OD1      257.8170   53.3580  135.4430 O.2   238  ASN238     -0.2716
     80  ND2      255.9300   53.6120  136.6290 N.am  238  ASN238     -0.0877
     81  N        250.9580   50.0570  143.6940 N.3   272  GLU272     -0.1245
     82  CA       250.8610   49.5920  142.3480 C.3   272  GLU272      0.1567
     83  C        252.2450   49.2720  141.7860 C.2   272  GLU272      0.2260
     84  O        252.8270   50.0120  140.9980 O.2   272  GLU272     -0.2867
     85  CB       250.2070   50.6200  141.4690 C.3   272  GLU272      0.0388
     86  CG       249.9310   49.9970  140.1150 C.3   272  GLU272      0.1160
     87  CD       249.8230   50.9890  139.0190 C.2   272  GLU272      0.3649
     88  OE1      250.5350   51.9990  139.1140 O.co2 272  GLU272     -0.2457
     89  OE2      249.0250   50.7490  138.0870 O.co2 272  GLU272     -0.2457
     90  N        254.3720   46.6330  139.6200 N.3   274  TRP274     -0.1241
     91  CA       254.2460   45.5520  138.6640 C.3   274  TRP274      0.1605
     92  C        255.3780   44.4980  138.5620 C.2   274  TRP274      0.2264
     93  O        255.1910   43.4930  137.9230 O.2   274  TRP274     -0.2867
     94  CB       254.0030   46.1420  137.2790 C.3   274  TRP274      0.0550
     95  CG       252.6750   46.8090  137.1350 C.ar  274  TRP274      0.0003
     96  CD1      252.4460   48.1320  137.1250 C.ar  274  TRP274      0.0946
     97  CD2      251.4010   46.1770  136.9450 C.ar  274  TRP274      0.0152
     98  NE1      251.1090   48.3900  136.9790 N.ar  274  TRP274     -0.2442
     99  CE2      250.4400   47.2030  136.8720 C.ar  274  TRP274      0.0810
    100  CE3      250.9810   44.8420  136.8190 C.ar  274  TRP274      0.0012
    101  CZ2      249.0840   46.9520  136.6790 C.ar  274  TRP274      0.0191
    102  CZ3      249.6080   44.5860  136.6370 C.ar  274  TRP274      0.0001
    103  CH2      248.6870   45.6470  136.5550 C.ar  274  TRP274      0.0015
    104  N        250.5490   39.6630  141.2540 N.3   294  ASN294     -0.1240
    105  CA       250.5730   39.7180  139.8280 C.3   294  ASN294      0.1653
    106  C        250.4870   38.3630  139.1990 C.2   294  ASN294      0.2266
    107  O        249.8330   38.2310  138.1830 O.2   294  ASN294     -0.2867
    108  CB       251.7190   40.5410  139.2350 C.3   294  ASN294      0.1155
    109  CG       251.5020   40.7700  137.7110 C.2   294  ASN294      0.2627
    110  OD1      250.3460   40.8340  137.2270 O.2   294  ASN294     -0.2716
    111  ND2      252.5920   40.8520  136.9540 N.am  294  ASN294     -0.0877
    112  N        246.7720   37.2940  139.0530 N.3   297  ARG297     -0.1231
    113  CA       246.0840   38.1020  138.1040 C.3   297  ARG297      0.1694
    114  C        246.3570   37.5760  136.7210 C.2   297  ARG297      0.2591
    115  O        245.4720   37.5710  135.9000 O.2   297  ARG297     -0.2718
    116  CB       246.5930   39.5120  138.1730 C.3   297  ARG297      0.0321
    117  CG       245.9490   40.4050  137.1410 C.3   297  ARG297      0.0489
    118  CD       246.7480   41.7330  136.8810 C.3   297  ARG297      0.2205
    119  NE       246.8780   41.8910  135.4440 N.pl3 297  ARG297     -0.0865
    120  CZ       247.9950   41.6490  134.7590 C.cat 297  ARG297      0.5346
    121  NH1      249.1080   41.3390  135.4020 N.pl3 297  ARG297      0.1354
    122  NH2      248.0160   41.7500  133.4210 N.pl3 297  ARG297      0.1354
    123  N        247.5780   37.1340  136.4390 N.am  298  LEU298     -0.1980
    124  CA       247.8810   36.6670  135.1290 C.3   298  LEU298      0.1596
    125  C        247.2110   35.3300  134.8810 C.2   298  LEU298      0.2287
    126  O        246.7640   35.0550  133.7810 O.2   298  LEU298     -0.2864
    127  CB       249.3810   36.5870  134.9680 C.3   298  LEU298      0.0297
    128  CG       250.1150   37.8270  134.4670 C.3   298  LEU298      0.0022
    129  CD1      251.5770   37.5570  134.3950 C.3   298  LEU298      0.0001
    130  CD2      249.6340   38.1860  133.1200 C.3   298  LEU298      0.0001
    131  N        241.1290   50.1890  136.7370 N.3   344  HIS344     -0.1226
    132  CA       240.7930   51.3170  135.9180 C.3   344  HIS344      0.1752
    133  C        241.6450   51.4150  134.6390 C.2   344  HIS344      0.2596
    134  O        241.1330   51.9020  133.6150 O.2   344  HIS344     -0.2718
    135  CB       240.8820   52.5920  136.7270 C.3   344  HIS344      0.0759
    136  CG       242.2650   53.0330  136.9520 C.ar  344  HIS344      0.0818
    137  ND1      243.0070   52.5640  137.9950 N.ar  344  HIS344     -0.2268
    138  CD2      243.0610   53.8730  136.2610 C.ar  344  HIS344      0.1154
    139  CE1      244.2100   53.1040  137.9530 C.ar  344  HIS344      0.1986
    140  NE2      244.2680   53.9060  136.9100 N.ar  344  HIS344     -0.2212
    141  N        242.9060   50.9520  134.6810 N.am  345  ASP345     -0.1960
    142  CA       243.7580   50.9060  133.4700 C.3   345  ASP345      0.1840
    143  C        244.0270   49.4980  132.9050 C.2   345  ASP345      0.2622
    144  O        243.8680   49.2750  131.6940 O.2   345  ASP345     -0.2715
    145  CB       245.1000   51.6350  133.6500 C.3   345  ASP345      0.1450
    146  CG       245.8550   51.2140  134.9280 C.2   345  ASP345      0.3671
    147  OD1      245.2980   50.4600  135.7560 O.co2 345  ASP345     -0.2456
    148  OD2      247.0120   51.6750  135.1060 O.co2 345  ASP345     -0.2456
    149  N        244.4620   48.5580  133.7460 N.am  346  SER346     -0.1950
    150  CA       244.8490   47.2530  133.2520 C.3   346  SER346      0.1924
    151  C        243.6160   46.5330  132.7360 C.2   346  SER346      0.2314
    152  O        242.6390   46.3500  133.4720 O.2   346  SER346     -0.2863
    153  CB       245.5280   46.4530  134.3610 C.3   346  SER346      0.2116
    154  OG       245.5880   45.0610  134.0570 O.3   346  SER346     -0.2180
    155  N        241.8110   50.2020  129.4390 N.3   349  GLN349     -0.1231
    156  CA       242.3210   51.0610  128.4370 C.3   349  GLN349      0.1698
    157  C        243.1190   50.2330  127.3830 C.2   349  GLN349      0.2592
    158  O        243.0840   50.5570  126.1980 O.2   349  GLN349     -0.2718
    159  CB       243.0990   52.1970  129.0830 C.3   349  GLN349      0.0381
    160  CG       244.5300   51.8820  129.2870 C.3   349  GLN349      0.0905
    161  CD       245.1470   52.9000  130.1540 C.2   349  GLN349      0.2608
    162  OE1      244.4210   53.5930  130.8630 O.2   349  GLN349     -0.2717
    163  NE2      246.4810   53.0150  130.1320 N.am  349  GLN349     -0.0878
    164  N        243.8040   49.1640  127.7800 N.am  350  ASP350     -0.1974
    165  CA       244.4560   48.3200  126.7700 C.3   350  ASP350      0.1709
    166  C        243.4960   47.8240  125.6680 C.2   350  ASP350      0.2293
    167  O        243.8930   47.7160  124.4930 O.2   350  ASP350     -0.2864
    168  CB       244.9770   47.0420  127.3980 C.3   350  ASP350      0.1436
    169  CG       245.7760   47.2800  128.6490 C.2   350  ASP350      0.3671
    170  OD1      247.0250   47.3960  128.5490 O.co2 350  ASP350     -0.2456
    171  OD2      245.1800   47.3000  129.7640 O.co2 350  ASP350     -0.2456
    172  N        248.8870   55.4580  124.4880 N.3   367  TYR367     -0.1241
    173  CA       247.4720   55.6890  124.8760 C.3   367  TYR367      0.1605
    174  C        247.0460   57.1200  124.5730 C.2   367  TYR367      0.2264
    175  O        246.1340   57.6630  125.2200 O.2   367  TYR367     -0.2867
    176  CB       247.1520   55.3000  126.3530 C.3   367  TYR367      0.0534
    177  CG       247.4910   53.8710  126.6170 C.ar  367  TYR367     -0.0201
    178  CD1      248.7240   53.5470  127.2230 C.ar  367  TYR367     -0.0009
    179  CD2      246.6450   52.8290  126.1710 C.ar  367  TYR367     -0.0009
    180  CE1      249.1170   52.2250  127.4320 C.ar  367  TYR367      0.0417
    181  CE2      247.0150   51.4820  126.3650 C.ar  367  TYR367      0.0417
    182  CZ       248.2650   51.2060  127.0070 C.ar  367  TYR367      0.1957
    183  OH       248.7060   49.9370  127.2390 O.3   367  TYR367     -0.2866
    184  N        238.1780   54.9390  134.0910 N.3   619  ASN619     -0.1240
    185  CA       238.7890   55.9890  133.2840 C.3   619  ASN619      0.1653
    186  C        237.7760   56.5850  132.3480 C.2   619  ASN619      0.2266
    187  O        237.8040   57.7690  132.0240 O.2   619  ASN619     -0.2867
    188  CB       239.8960   55.4230  132.4070 C.3   619  ASN619      0.1155
    189  CG       241.2360   55.5740  133.0240 C.2   619  ASN619      0.2627
    190  OD1      241.3400   56.1130  134.1060 O.2   619  ASN619     -0.2716
    191  ND2      242.2770   55.0780  132.3580 N.am  619  ASN619     -0.0877
    192  N        247.8010   63.1310  126.7430 N.3   664  PHE664     -0.1241
    193  CA       247.7490   61.6810  127.0260 C.3   664  PHE664      0.1605
    194  C        246.3300   61.3470  127.4770 C.2   664  PHE664      0.2264
    195  O        245.5620   62.2340  127.8620 O.2   664  PHE664     -0.2867
    196  CB       248.7930   61.3410  128.0950 C.3   664  PHE664      0.0534
    197  CG       248.8670   59.8870  128.4690 C.ar  664  PHE664     -0.0203
    198  CD1      249.4060   58.9530  127.5750 C.ar  664  PHE664     -0.0042
    199  CD2      248.4330   59.4610  129.7580 C.ar  664  PHE664     -0.0042
    200  CE1      249.5020   57.5960  127.9220 C.ar  664  PHE664     -0.0003
    201  CE2      248.5000   58.1170  130.1330 C.ar  664  PHE664     -0.0003
    202  CZ       249.0420   57.1630  129.2000 C.ar  664  PHE664     -0.0000
    203  N        244.9750   60.3450  130.0390 N.3   666  ASP666     -0.1239
    204  CA       244.6380   60.7760  131.4020 C.3   666  ASP666      0.1674
    205  C        244.0010   62.1700  131.4800 C.2   666  ASP666      0.2266
    206  O        243.0540   62.3950  132.2790 O.2   666  ASP666     -0.2867
    207  CB       245.8780   60.7490  132.2900 C.3   666  ASP666      0.1410
    208  CG       246.2220   59.3480  132.8160 C.2   666  ASP666      0.3668
    209  OD1      245.3570   58.4770  132.7680 O.co2 666  ASP666     -0.2456
    210  OD2      247.3540   59.1290  133.3230 O.co2 666  ASP666     -0.2456
    211  N        244.8910   61.5300  137.1660 N.3   673  TYR673     -0.1241
    212  CA       246.2960   61.2300  137.2370 C.3   673  TYR673      0.1605
    213  C        247.1090   62.3710  136.6110 C.2   673  TYR673      0.2264
    214  O        248.3300   62.5270  136.9040 O.2   673  TYR673     -0.2867
    215  CB       246.5750   59.8660  136.5970 C.3   673  TYR673      0.0534
    216  CG       246.0870   58.7350  137.4800 C.ar  673  TYR673     -0.0201
    217  CD1      246.8380   58.3160  138.5620 C.ar  673  TYR673     -0.0009
    218  CD2      244.8570   58.1280  137.2490 C.ar  673  TYR673     -0.0009
    219  CE1      246.3890   57.3100  139.3870 C.ar  673  TYR673      0.0417
    220  CE2      244.3930   57.1210  138.0550 C.ar  673  TYR673      0.0417
    221  CZ       245.1610   56.7160  139.1410 C.ar  673  TYR673      0.1957
    222  OH       244.7240   55.7320  139.9920 O.3   673  TYR673     -0.2866
    223  N        254.8590   62.2340  138.5390 N.3   717  GLN717     -0.1245
    224  CA       254.8660   63.3040  137.5290 C.3   717  GLN717      0.1566
    225  C        253.7720   64.3600  137.6640 C.2   717  GLN717      0.2260
    226  O        252.7210   64.1200  138.2850 O.2   717  GLN717     -0.2867
    227  CB       254.6860   62.6690  136.1670 C.3   717  GLN717      0.0367
    228  CG       253.2300   62.3510  135.8770 C.3   717  GLN717      0.0905
    229  CD       252.7300   61.0090  136.4070 C.2   717  GLN717      0.2608
    230  OE1      253.4890   60.0720  136.5960 O.2   717  GLN717     -0.2717
    231  NE2      251.4190   60.9090  136.5740 N.am  717  GLN717     -0.0878
@<TRIPOS>BOND
     1   172   173    1
     2   167   166    2
     3     4     3    2
     4   174   173    1
     5   174   175    2
     6   173   176    1
     7     3     2    1
     8   166   165    1
     9     2     1    1
    10     2     5    1
    11   179   181   ar
    12   179   177   ar
    13   158   157    2
    14   176   177    1
    15   181   182   ar
    16   177   178   ar
    17   192   193    1
    18   165   168    1
    19   165   164    1
    20     8     6    1
    21   182   183    1
    22   182   180   ar
    23   193   194    1
    24   193   196    1
    25   178   180   ar
    26     5     6    1
    27   157   164   am
    28   157   156    1
    29   168   169    1
    30   194   195    2
    31   198   200   ar
    32   198   197   ar
    33     6     7    1
    34   200   202   ar
    35   196   197    1
    36   156   159    1
    37   156   155    1
    38   197   199   ar
    39   170   169   ar
    40   169   171   ar
    41   159   160    1
    42   202   201   ar
    43   160   161    1
    44    40    38    1
    45   199   201   ar
    46   203   204    1
    47   163   161   am
    48   161   162    2
    49    28    27    2
    50    38    37    1
    51    38    39    1
    52    24    23    1
    53   204   205    1
    54   204   207    1
    55    34    37    1
    56    34    35    1
    57    34    33    1
    58   205   206    2
    59    27    33   am
    60    27    26    1
    61   144   143    2
    62    23    22   ar
    63    23    21   ar
    64    22    20   ar
    65    35    36    2
    66   187   186    2
    67    21    19   ar
    68    20    18   ar
    69   207   208    1
    70   186   185    1
    71   191   189   am
    72   188   189    1
    73   188   185    1
    74    26    25    1
    75    26    29    1
    76    19    18   ar
    77    18    17    1
    78   151   150    1
    79   151   152    2
    80    31    30    1
    81   209   208   ar
    82   208   210   ar
    83   143   142    1
    84   143   149   am
    85   189   190    2
    86    17    14    1
    87   130   128    1
    88   150   149    1
    89   150   153    1
    90   185   184    1
    91    30    29    1
    92    30    32    1
    93   122   120    1
    94   142   145    1
    95   142   141    1
    96   134   133    2
    97   145   146    1
    98   126   125    2
    99   154   153    1
   100   129   128    1
   101   128   127    1
   102    14    15    1
   103    14    13    1
   104   133   141   am
   105   133   132    1
   106   120   121    1
   107   120   119    2
   108   125   124    1
   109    15    16    2
   110   146   148   ar
   111   146   147   ar
   112    12    11    2
   113   127   124    1
   114   124   123    1
   115    13    11   am
   116    11    10    1
   117    79    78    2
   118   119   118    1
   119   228   227    1
   120   228   229    1
   121   115   114    2
   122   132   135    1
   123   132   131    1
   124    10     9    1
   125   227   224    1
   126   138   140   ar
   127   138   136   ar
   128    78    80   am
   129    78    77    1
   130   229   231   am
   131   229   230    2
   132   123   114   am
   133   103   102   ar
   134   103   101   ar
   135   215   212    1
   136   215   216    1
   137   213   214    2
   138   213   212    1
   139   102   100   ar
   140   101    99   ar
   141   114   113    1
   142   135   136    1
   143   100    97   ar
   144    99    97   ar
   145    99    98   ar
   146   118   117    1
   147   140   139   ar
   148    97    95   ar
   149   136   137   ar
   150   111   109   am
   151    98    96   ar
   152    77    74    1
   153    96    95   ar
   154    95    94    1
   155   117   116    1
   156   211   212    1
   157   110   109    2
   158   218   216   ar
   159   218   220   ar
   160    94    91    1
   161   216   217   ar
   162   224   225    1
   163   224   223    1
   164   225   226    2
   165   109   108    1
   166    68    67    2
   167    93    92    2
   168   139   137   ar
   169    74    73    1
   170    74    75    1
   171   220   221   ar
   172    89    87   ar
   173   113   116    1
   174   113   112    1
   175   107   106    2
   176    76    75    2
   177    72    70   ar
   178    69    70    1
   179    69    66    1
   180   217   219   ar
   181    92    91    1
   182    67    73   am
   183    67    66    1
   184    91    90    1
   185    64    61    1
   186    87    88   ar
   187    87    86    1
   188    70    71   ar
   189   221   219   ar
   190   221   222    1
   191   106   105    1
   192   108   105    1
   193    58    57   ar
   194    66    65    1
   195    59    57   ar
   196    61    60    1
   197    61    62    1
   198   105   104    1
   199    57    56    1
   200    86    85    1
   201    63    62    2
   202    51    49    1
   203    60    54   am
   204    84    83    2
   205    49    50    1
   206    49    48    2
   207    54    55    2
   208    54    53    1
   209    85    82    1
   210    56    53    1
   211    83    82    1
   212    53    52    1
   213    82    81    1
   214    48    47    1
   215    47    46    1
   216    46    45    1
   217    45    42    1
   218    44    43    2
   219    43    42    1
   220    42    41    1
