@<TRIPOS>MOLECULE
tmp/3aidA00.pdb
 109 102 0 0 0
SMALL
GASTEIGER

@<TRIPOS>ATOM
      1  N          4.8010   -4.3050   28.5350 N.3     8  ARG8       -0.1245
      2  CA         4.0910   -3.5870   27.4490 C.3     8  ARG8        0.1563
      3  C          3.0030   -2.6120   27.8870 C.2     8  ARG8        0.2260
      4  O          2.1840   -2.9380   28.7460 O.2     8  ARG8       -0.2867
      5  CB         3.3840   -4.5170   26.4880 C.3     8  ARG8        0.0307
      6  CG         4.1440   -5.7480   26.1070 C.3     8  ARG8        0.0489
      7  CD         3.2970   -6.5810   25.1840 C.3     8  ARG8        0.2205
      8  NE         4.1510   -7.6690   24.7900 N.pl3   8  ARG8       -0.0865
      9  CZ         4.3430   -8.0830   23.5210 C.cat   8  ARG8        0.5346
     10  NH1        3.5980   -7.6900   22.4900 N.pl3   8  ARG8        0.1354
     11  NH2        5.3340   -8.9470   23.3220 N.pl3   8  ARG8        0.1354
     12  N         -2.7870   -1.7110   22.8050 N.3    23  LEU23      -0.1245
     13  CA        -1.3970   -1.2890   23.1140 C.3    23  LEU23       0.1561
     14  C         -1.1180    0.1460   22.6980 C.2    23  LEU23       0.2260
     15  O         -1.4410    0.5520   21.5860 O.2    23  LEU23      -0.2867
     16  CB        -0.4380   -2.2530   22.3660 C.3    23  LEU23       0.0270
     17  CG         1.0830   -2.1860   22.4760 C.3    23  LEU23       0.0019
     18  CD1        1.5710   -2.7060   23.8090 C.3    23  LEU23       0.0001
     19  CD2        1.7440   -3.0230   21.4050 C.3    23  LEU23       0.0001
     20  N          1.0380    2.7900   21.3570 N.3    25  ASP25      -0.1239
     21  CA         2.1500    2.4850   20.4410 C.3    25  ASP25       0.1674
     22  C          2.6380    3.7310   19.7150 C.2    25  ASP25       0.2266
     23  O          2.3050    3.9870   18.5740 O.2    25  ASP25      -0.2867
     24  CB         1.6930    1.3320   19.4910 C.3    25  ASP25       0.1410
     25  CG         2.6340    0.9340   18.3540 C.2    25  ASP25       0.3668
     26  OD1        3.5200    1.6870   17.9660 O.co2  25  ASP25      -0.2456
     27  OD2        2.4650   -0.1610   17.8380 O.co2  25  ASP25      -0.2456
     28  N          5.2400    4.5820   18.1010 N.3    27  GLY27      -0.1210
     29  CA         5.7640    4.4890   16.7170 C.3    27  GLY27       0.1956
     30  C          4.8070    4.0800   15.5560 C.2    27  GLY27       0.2612
     31  O          5.1690    3.9270   14.3990 O.2    27  GLY27      -0.2717
     32  N          3.5190    3.9820   15.9110 N.am   28  ALA28      -0.1965
     33  CA         2.4550    3.9210   14.9040 C.3    28  ALA28       0.1728
     34  C          1.7310    5.2560   14.6870 C.2    28  ALA28       0.2616
     35  O          1.1560    5.8700   15.5720 O.2    28  ALA28      -0.2715
     36  CB         1.4330    2.8310   15.2750 C.3    28  ALA28       0.0334
     37  N          1.7350    5.6950   13.4170 N.am   29  ASP29      -0.1957
     38  CA         0.9610    6.9060   13.0820 C.3    29  ASP29       0.1840
     39  C         -0.5640    6.8700   13.3210 C.2    29  ASP29       0.2622
     40  O         -1.2370    7.8310   13.6800 O.2    29  ASP29      -0.2715
     41  CB         1.2140    7.3340   11.6210 C.3    29  ASP29       0.1450
     42  CG         2.6520    7.7230   11.2410 C.2    29  ASP29       0.3671
     43  OD1        3.4730    8.0240   12.1190 O.co2  29  ASP29      -0.2456
     44  OD2        2.9370    7.7290   10.0350 O.co2  29  ASP29      -0.2456
     45  N         -1.0600    5.6540   13.0680 N.am   30  ASP30      -0.1971
     46  CA        -2.4880    5.2770   13.0930 C.3    30  ASP30       0.1709
     47  C         -2.8190    4.0940   14.0370 C.2    30  ASP30       0.2293
     48  O         -1.9610    3.3530   14.5290 O.2    30  ASP30      -0.2864
     49  CB        -3.0130    4.8740   11.6940 C.3    30  ASP30       0.1436
     50  CG        -2.6040    5.7710   10.5110 C.2    30  ASP30       0.3671
     51  OD1       -2.9690    6.9510   10.4710 O.co2  30  ASP30      -0.2456
     52  OD2       -1.9290    5.2770    9.6060 O.co2  30  ASP30      -0.2456
     53  N         -5.0410    0.6510   14.5490 N.3    32  VAL32      -0.1245
     54  CA        -5.3940   -0.5990   13.8180 C.3    32  VAL32       0.1561
     55  C         -5.8340   -1.7220   14.7830 C.2    32  VAL32       0.2260
     56  O         -5.2190   -2.0600   15.8090 O.2    32  VAL32      -0.2867
     57  CB        -4.2260   -1.1720   12.9610 C.3    32  VAL32       0.0252
     58  CG1       -4.6590   -2.3910   12.1460 C.3    32  VAL32       0.0019
     59  CG2       -3.6150   -0.1560   11.9960 C.3    32  VAL32       0.0019
     60  N         -1.9670   -0.3070    3.8890 N.3    47  ILE47      -0.1231
     61  CA        -0.8980    0.2720    4.7420 C.3    47  ILE47       0.1692
     62  C          0.4610   -0.4530    4.8620 C.2    47  ILE47       0.2593
     63  O          0.5790   -1.6410    5.0900 O.2    47  ILE47      -0.2718
     64  CB        -1.4660    0.5870    6.1230 C.3    47  ILE47       0.0266
     65  CG1       -1.7120   -0.6830    6.9420 C.3    47  ILE47       0.0019
     66  CG2       -2.7340    1.4460    5.9440 C.3    47  ILE47       0.0020
     67  CD1       -1.2790   -0.5640    8.3990 C.3    47  ILE47       0.0001
     68  N          1.5410    0.2870    4.6850 N.am   48  GLY48      -0.1942
     69  CA         2.8100   -0.4550    4.7740 C.3    48  GLY48       0.2014
     70  C          3.5010   -0.4500    6.1240 C.2    48  GLY48       0.2639
     71  O          3.6900    0.6110    6.6850 O.2    48  GLY48      -0.2714
     72  N          3.8720   -1.6380    6.6300 N.am   49  GLY49      -0.1939
     73  CA         4.6670   -1.7170    7.8780 C.3    49  GLY49       0.2014
     74  C          6.0320   -2.3710    7.6710 C.2    49  GLY49       0.2639
     75  O          6.4010   -2.6750    6.5480 O.2    49  GLY49      -0.2714
     76  N          6.8240   -2.6040    8.7370 N.am   50  ILE50      -0.1963
     77  CA         8.1680   -3.0230    8.2900 C.3    50  ILE50       0.1727
     78  C          8.3240   -4.3640    7.5450 C.2    50  ILE50       0.2616
     79  O          9.1590   -4.5110    6.6700 O.2    50  ILE50      -0.2715
     80  CB         9.3400   -2.7910    9.3050 C.3    50  ILE50       0.0290
     81  CG1        9.9500   -4.0570    9.8880 C.3    50  ILE50       0.0022
     82  CG2        9.0560   -1.7880   10.4380 C.3    50  ILE50       0.0023
     83  CD1       11.3210   -3.7590   10.4850 C.3    50  ILE50       0.0001
     84  N          7.4630   -5.3410    7.8970 N.am   51  GLY51      -0.1955
     85  CA         7.5530   -6.6130    7.1540 C.3    51  GLY51       0.1869
     86  C          6.7100   -6.7330    5.8710 C.2    51  GLY51       0.2309
     87  O          6.6120   -7.7960    5.3020 O.2    51  GLY51      -0.2863
     88  N         -1.1440   -8.1550   14.6810 N.3    81  PRO81      -0.2102
     89  CA        -0.9880   -9.1390   15.7840 C.3    81  PRO81       0.1504
     90  C         -1.7900   -8.8500   17.0530 C.2    81  PRO81       0.2575
     91  O         -2.4040   -9.7130   17.6440 O.2    81  PRO81      -0.2718
     92  CB         0.5210   -9.1910   16.0650 C.3    81  PRO81       0.0282
     93  CG         1.1780   -8.5510   14.8480 C.3    81  PRO81       0.0208
     94  CD         0.1390   -7.5870   14.2700 C.3    81  PRO81       0.0893
     95  N         -1.7360   -7.5700   17.4530 N.am   82  VAL82      -0.1980
     96  CA        -2.4400   -7.0170   18.6240 C.3    82  VAL82       0.1595
     97  C         -3.3730   -5.8450   18.2410 C.2    82  VAL82       0.2287
     98  O         -3.2540   -5.2940   17.1420 O.2    82  VAL82      -0.2864
     99  CB        -1.3970   -6.5190   19.6510 C.3    82  VAL82       0.0276
    100  CG1       -0.7660   -7.6790   20.3700 C.3    82  VAL82       0.0022
    101  CG2       -0.3330   -5.6070   19.0300 C.3    82  VAL82       0.0022
    102  N         -3.7330   -2.0180   18.2810 N.3    84  ILE84      -0.1245
    103  CA        -2.8200   -0.8440   18.2860 C.3    84  ILE84       0.1561
    104  C         -3.5300    0.5480   18.3480 C.2    84  ILE84       0.2260
    105  O         -4.3100    0.9140   17.4700 O.2    84  ILE84      -0.2867
    106  CB        -1.9170   -0.9490   17.0050 C.3    84  ILE84       0.0252
    107  CG1       -0.8780   -2.0650   17.0740 C.3    84  ILE84       0.0019
    108  CG2       -1.1710    0.3250   16.5640 C.3    84  ILE84       0.0019
    109  CD1       -0.2140   -2.2790   15.7080 C.3    84  ILE84       0.0001
@<TRIPOS>BOND
     1    60    61    1
     2    68    69    1
     3    68    62   am
     4    61    62    1
     5    61    64    1
     6    69    70    1
     7    62    63    2
     8    87    86    2
     9    86    85    1
    10    66    64    1
    11    64    65    1
    12    70    72   am
    13    70    71    2
    14    75    74    2
    15    72    73    1
    16    79    78    2
    17    65    67    1
    18    85    84    1
    19    78    84   am
    20    78    77    1
    21    74    73    1
    22    74    76   am
    23    77    76    1
    24    77    80    1
    25    80    81    1
    26    80    82    1
    27    52    50   ar
    28    81    83    1
    29    44    42   ar
    30    51    50   ar
    31    50    49    1
    32    42    41    1
    33    42    43   ar
    34    41    38    1
    35    49    46    1
    36    59    57    1
    37    58    57    1
    38    57    54    1
    39    45    46    1
    40    45    39   am
    41    38    39    1
    42    38    37    1
    43    46    47    1
    44    39    40    2
    45    37    34   am
    46    54    53    1
    47    54    55    1
    48    47    48    2
    49    94    88    1
    50    94    93    1
    51    31    30    2
    52    88    89    1
    53    34    33    1
    54    34    35    2
    55    55    56    2
    56    93    92    1
    57    33    36    1
    58    33    32    1
    59    30    32   am
    60    30    29    1
    61   109   107    1
    62    89    92    1
    63    89    90    1
    64   108   106    1
    65    29    28    1
    66   106   107    1
    67   106   103    1
    68    90    95   am
    69    90    91    2
    70    98    97    2
    71    95    96    1
    72   105   104    2
    73    27    25   ar
    74    26    25   ar
    75    97    96    1
    76   102   103    1
    77   103   104    1
    78    25    24    1
    79    23    22    2
    80    96    99    1
    81   101    99    1
    82    24    21    1
    83    99   100    1
    84    22    21    1
    85    21    20    1
    86    19    17    1
    87    15    14    2
    88    16    17    1
    89    16    13    1
    90    17    18    1
    91    10     9    1
    92    14    13    1
    93    12    13    1
    94    11     9    1
    95     9     8    2
    96     8     7    1
    97     7     6    1
    98     6     5    1
    99     5     2    1
   100     2     3    1
   101     2     1    1
   102     3     4    2
