@<TRIPOS>MOLECULE
tmp/3aihB00.pdb
 125 122 0 0 0
SMALL
GASTEIGER

@<TRIPOS>ATOM
      1  N         44.3300   45.8180   10.1680 N.3     8  ASP8       -0.1225
      2  CA        45.7360   45.6320    9.7720 C.3     8  ASP8        0.1805
      3  C         46.0870   46.5570    8.6480 C.2     8  ASP8        0.2598
      4  O         45.8740   47.7610    8.7610 O.2     8  ASP8       -0.2718
      5  CB        46.0100   44.1990    9.3290 C.3     8  ASP8        0.1424
      6  CG        45.7580   43.2120   10.4140 C.2     8  ASP8        0.3668
      7  OD1       46.0050   43.5720   11.5770 O.co2   8  ASP8       -0.2456
      8  OD2       45.2850   42.0960   10.0970 O.co2   8  ASP8       -0.2456
      9  N         46.5950   45.9910    7.5550 N.am    9  TRP9       -0.1962
     10  CA        46.9400   46.7650    6.3530 C.3     9  TRP9        0.1771
     11  C         45.7730   47.5120    5.7050 C.2     9  TRP9        0.2619
     12  O         45.9780   48.5410    5.0170 O.2     9  TRP9       -0.2715
     13  CB        47.5580   45.8440    5.2890 C.3     9  TRP9        0.0590
     14  CG        48.2830   46.6030    4.1510 C.ar    9  TRP9        0.0006
     15  CD1       47.8650   46.7690    2.8660 C.ar    9  TRP9        0.0946
     16  CD2       49.5540   47.2580    4.2460 C.ar    9  TRP9        0.0152
     17  NE1       48.7850   47.4970    2.1570 N.ar    9  TRP9       -0.2442
     18  CE2       49.8270   47.8210    2.9900 C.ar    9  TRP9        0.0810
     19  CE3       50.4800   47.4360    5.2900 C.ar    9  TRP9        0.0012
     20  CZ2       50.9940   48.5460    2.7320 C.ar    9  TRP9        0.0191
     21  CZ3       51.6590   48.1630    5.0350 C.ar    9  TRP9        0.0001
     22  CH2       51.8970   48.7050    3.7670 C.ar    9  TRP9        0.0015
     23  N         44.5590   46.9790    5.8850 N.am   10  TRP10      -0.1974
     24  CA        43.4550   47.3200    4.9890 C.3    10  TRP10       0.1640
     25  C         42.3830   48.1270    5.6670 C.2    10  TRP10       0.2290
     26  O         42.0040   47.8420    6.8170 O.2    10  TRP10      -0.2864
     27  CB        42.8550   46.0450    4.3470 C.3    10  TRP10       0.0576
     28  CG        43.8480   45.2940    3.4640 C.ar   10  TRP10       0.0006
     29  CD1       44.4490   44.0760    3.7280 C.ar   10  TRP10       0.0946
     30  CD2       44.3340   45.7080    2.1810 C.ar   10  TRP10       0.0152
     31  NE1       45.2720   43.7170    2.6730 N.ar   10  TRP10      -0.2442
     32  CE2       45.2180   44.6940    1.7140 C.ar   10  TRP10       0.0810
     33  CE3       44.1140   46.8390    1.3770 C.ar   10  TRP10       0.0012
     34  CZ2       45.8780   44.7800    0.4770 C.ar   10  TRP10       0.0191
     35  CZ3       44.7850   46.9270    0.1460 C.ar   10  TRP10       0.0001
     36  CH2       45.6470   45.8970   -0.2960 C.ar   10  TRP10       0.0015
     37  N         38.5020   49.1420    5.0910 N.3    12  TYR12      -0.1241
     38  CA        37.3000   48.6910    4.3690 C.3    12  TYR12       0.1605
     39  C         36.2480   49.7680    4.3280 C.2    12  TYR12       0.2264
     40  O         35.9280   50.3390    5.3560 O.2    12  TYR12      -0.2867
     41  CB        36.7260   47.4480    5.0400 C.3    12  TYR12       0.0534
     42  CG        37.7000   46.3050    5.0200 C.ar   12  TYR12      -0.0201
     43  CD1       37.6820   45.3720    3.9840 C.ar   12  TYR12      -0.0009
     44  CD2       38.6790   46.1910    5.9890 C.ar   12  TYR12      -0.0009
     45  CE1       38.6200   44.3100    3.9410 C.ar   12  TYR12       0.0417
     46  CE2       39.5930   45.1550    5.9600 C.ar   12  TYR12       0.0417
     47  CZ        39.5510   44.2200    4.9420 C.ar   12  TYR12       0.1957
     48  OH        40.4550   43.1840    4.9460 O.3    12  TYR12      -0.2866
     49  N         38.3350   47.9950   -0.5160 N.3    22  GLN22      -0.1245
     50  CA        39.3830   47.6750    0.3850 C.3    22  GLN22       0.1566
     51  C         40.6250   48.4430   -0.0750 C.2    22  GLN22       0.2260
     52  O         41.0590   48.2880   -1.2020 O.2    22  GLN22      -0.2867
     53  CB        39.5930   46.1620    0.3280 C.3    22  GLN22       0.0367
     54  CG        40.7320   45.6590    1.2190 C.3    22  GLN22       0.0905
     55  CD        41.1100   44.2330    0.8960 C.2    22  GLN22       0.2608
     56  OE1       41.2520   43.3910    1.8000 O.2    22  GLN22      -0.2717
     57  NE2       41.2700   43.9480   -0.3930 N.am   22  GLN22      -0.0878
     58  N         40.8500   48.2480   -4.1600 N.3    35  LEU35      -0.1245
     59  CA        40.2430   46.9680   -4.5650 C.3    35  LEU35       0.1561
     60  C         38.7260   46.9650   -4.2580 C.2    35  LEU35       0.2260
     61  O         38.3030   47.6100   -3.3250 O.2    35  LEU35      -0.2867
     62  CB        40.9270   45.7910   -3.8400 C.3    35  LEU35       0.0270
     63  CG        42.3930   45.5740   -4.2420 C.3    35  LEU35       0.0019
     64  CD1       43.0720   44.5700   -3.3110 C.3    35  LEU35       0.0001
     65  CD2       42.5310   45.1840   -5.7830 C.3    35  LEU35       0.0001
     66  N         44.4780   37.5330   -7.0200 N.3    67  ASP67      -0.1225
     67  CA        45.7230   37.1160   -7.6930 C.3    67  ASP67       0.1805
     68  C         46.0240   35.6530   -7.3800 C.2    67  ASP67       0.2597
     69  O         46.6110   34.9330   -8.1810 O.2    67  ASP67      -0.2718
     70  CB        46.8990   38.0220   -7.3340 C.3    67  ASP67       0.1424
     71  CG        47.0230   38.2430   -5.8480 C.2    67  ASP67       0.3668
     72  OD1       46.2220   37.6210   -5.0910 O.co2  67  ASP67      -0.2456
     73  OD2       47.9210   39.0380   -5.4410 O.co2  67  ASP67      -0.2456
     74  N         45.5570   35.2030   -6.2230 N.am   68  LEU68      -0.1979
     75  CA        45.7100   33.8130   -5.8550 C.3    68  LEU68       0.1596
     76  C         45.0200   32.8030   -6.7950 C.2    68  LEU68       0.2287
     77  O         45.5070   31.6830   -6.9290 O.2    68  LEU68      -0.2864
     78  CB        45.2660   33.5980   -4.4080 C.3    68  LEU68       0.0297
     79  CG        46.3000   33.7890   -3.2970 C.3    68  LEU68       0.0022
     80  CD1       47.2860   34.9380   -3.5430 C.3    68  LEU68       0.0001
     81  CD2       45.5760   33.9490   -1.9630 C.3    68  LEU68       0.0001
     82  N         36.6020   38.7090   -6.4210 N.3    73  ARG73      -0.1245
     83  CA        36.2760   38.7750   -5.0010 C.3    73  ARG73       0.1563
     84  C         34.7560   38.7300   -4.7860 C.2    73  ARG73       0.2260
     85  O         33.9840   39.1220   -5.6800 O.2    73  ARG73      -0.2867
     86  CB        36.8820   40.0430   -4.4070 C.3    73  ARG73       0.0307
     87  CG        38.3620   39.8480   -4.0160 C.3    73  ARG73       0.0489
     88  CD        39.0270   41.1420   -3.6430 C.3    73  ARG73       0.2205
     89  NE        40.4080   40.9480   -3.2290 N.pl3  73  ARG73      -0.0865
     90  CZ        41.4580   40.9320   -4.0760 C.cat  73  ARG73       0.5346
     91  NH1       41.2650   41.1020   -5.3870 N.pl3  73  ARG73       0.1354
     92  NH2       42.6930   40.7290   -3.6060 N.pl3  73  ARG73       0.1354
     93  N         37.7250   36.8510    6.5240 N.3    95  GLU95      -0.1245
     94  CA        38.0340   36.3860    5.2000 C.3    95  GLU95       0.1567
     95  C         38.2300   34.8830    5.3260 C.2    95  GLU95       0.2260
     96  O         39.3300   34.4260    5.3160 O.2    95  GLU95      -0.2867
     97  CB        39.2590   37.1200    4.6210 C.3    95  GLU95       0.0388
     98  CG        39.4910   36.8430    3.1330 C.3    95  GLU95       0.1160
     99  CD        40.6930   37.5720    2.5540 C.2    95  GLU95       0.3649
    100  OE1       41.1610   38.5600    3.1580 O.co2  95  GLU95      -0.2457
    101  OE2       41.1530   37.1880    1.4510 O.co2  95  GLU95      -0.2457
    102  N         40.2680   32.6580    0.8220 N.3    98  SER98      -0.1202
    103  CA        40.9670   33.7480    0.1270 C.3    98  SER98       0.2020
    104  C         40.0120   34.5030   -0.7340 C.2    98  SER98       0.2619
    105  O         39.3120   33.9140   -1.5500 O.2    98  SER98      -0.2717
    106  CB        42.1390   33.2420   -0.7340 C.3    98  SER98       0.2103
    107  OG        43.0830   32.6080    0.1250 O.3    98  SER98      -0.2182
    108  N         39.9730   35.8210   -0.5530 N.am   99  CYS99      -0.1969
    109  CA        39.1620   36.6770   -1.4180 C.3    99  CYS99       0.1712
    110  C         37.6590   36.4400   -1.3070 C.2    99  CYS99       0.2296
    111  O         36.9380   36.8320   -2.2010 O.2    99  CYS99      -0.2864
    112  CB        39.6280   36.5280   -2.8820 C.3    99  CYS99       0.0983
    113  SG        41.2710   37.2660   -3.1190 S.3    99  CYS99      -0.0798
    114  N         34.9380   37.3910    1.6380 N.3   101  TYR101     -0.1241
    115  CA        34.8150   38.1660    2.8940 C.3   101  TYR101      0.1605
    116  C         33.3920   38.0640    3.4970 C.2   101  TYR101      0.2264
    117  O         32.4010   37.8830    2.7550 O.2   101  TYR101     -0.2867
    118  CB        35.1180   39.6410    2.6340 C.3   101  TYR101      0.0534
    119  CG        36.4120   39.8200    1.8400 C.ar  101  TYR101     -0.0201
    120  CD1       37.6170   40.1470    2.4970 C.ar  101  TYR101     -0.0009
    121  CD2       36.4470   39.5680    0.4480 C.ar  101  TYR101     -0.0009
    122  CE1       38.8400   40.2630    1.7700 C.ar  101  TYR101      0.0417
    123  CE2       37.6180   39.6980   -0.2800 C.ar  101  TYR101      0.0417
    124  CZ        38.8250   40.0250    0.3880 C.ar  101  TYR101      0.1957
    125  OH        39.9870   40.1130   -0.3400 O.3   101  TYR101     -0.2866
@<TRIPOS>BOND
     1    69    68    2
     2    67    68    1
     3    67    70    1
     4    67    66    1
     5    68    74   am
     6    70    71    1
     7    77    76    2
     8    76    75    1
     9    82    83    1
    10    74    75    1
    11    75    78    1
    12    71    73   ar
    13    71    72   ar
    14    65    63    1
    15    85    84    2
    16    91    90    1
    17    83    84    1
    18    83    86    1
    19    59    60    1
    20    59    58    1
    21    59    62    1
    22    78    79    1
    23    86    87    1
    24    60    61    2
    25    63    62    1
    26    63    64    1
    27    90    92    1
    28    90    89    2
    29    87    88    1
    30    88    89    1
    31    80    79    1
    32    79    81    1
    33   113   112    1
    34   112   109    1
    35   111   110    2
    36   105   104    2
    37   109   110    1
    38   109   108    1
    39    52    51    2
    40   104   108   am
    41   104   103    1
    42   106   107    1
    43   106   103    1
    44    49    50    1
    45    57    55   am
    46   125   124    1
    47    36    35   ar
    48    36    34   ar
    49   123   124   ar
    50   123   121   ar
    51    51    50    1
    52   103   102    1
    53    35    33   ar
    54    53    50    1
    55    53    54    1
    56   124   122   ar
    57   121   119   ar
    58    34    32   ar
    59    55    54    1
    60    55    56    2
    61    33    30   ar
    62   101    99   ar
    63   114   115    1
    64    32    30   ar
    65    32    31   ar
    66   122   120   ar
    67   119   120   ar
    68   119   118    1
    69    17    15   ar
    70    17    18   ar
    71    30    28   ar
    72    99    98    1
    73    99   100   ar
    74   118   115    1
    75    31    29   ar
    76    20    18   ar
    77    20    22   ar
    78   117   116    2
    79    15    14   ar
    80   115   116    1
    81    18    16   ar
    82    98    97    1
    83    28    29   ar
    84    28    27    1
    85    22    21   ar
    86    45    43   ar
    87    45    47   ar
    88    43    42   ar
    89    14    16   ar
    90    14    13    1
    91    16    19   ar
    92    39    38    1
    93    39    40    2
    94    27    24    1
    95    38    41    1
    96    38    37    1
    97    97    94    1
    98    47    48    1
    99    47    46   ar
   100    24    25    1
   101    24    23    1
   102    12    11    2
   103    42    41    1
   104    42    44   ar
   105    21    19   ar
   106    94    95    1
   107    94    93    1
   108    13    10    1
   109    96    95    2
   110    25    26    2
   111    11    23   am
   112    11    10    1
   113    46    44   ar
   114    10     9    1
   115     9     3   am
   116     3     4    2
   117     3     2    1
   118     5     2    1
   119     5     6    1
   120     2     1    1
   121     8     6   ar
   122     6     7   ar
