@<TRIPOS>MOLECULE
tmp/3aikB03.pdb
 134 131 0 0 0
SMALL
GASTEIGER

@<TRIPOS>ATOM
      1  N         73.1830    4.7630   25.9360 N.3    10  PHE10      -0.1241
      2  CA        72.8050    4.2640   24.6140 C.3    10  PHE10       0.1605
      3  C         73.8750    4.6010   23.5660 C.2    10  PHE10       0.2264
      4  O         74.2750    3.7390   22.7840 O.2    10  PHE10      -0.2867
      5  CB        71.4330    4.8110   24.2050 C.3    10  PHE10       0.0534
      6  CG        70.9740    4.3480   22.8430 C.ar   10  PHE10      -0.0203
      7  CD1       70.9300    2.9880   22.5310 C.ar   10  PHE10      -0.0042
      8  CD2       70.5590    5.2690   21.8830 C.ar   10  PHE10      -0.0042
      9  CE1       70.5550    2.5470   21.2560 C.ar   10  PHE10      -0.0003
     10  CE2       70.1440    4.8450   20.6260 C.ar   10  PHE10      -0.0003
     11  CZ        70.1600    3.4720   20.3010 C.ar   10  PHE10      -0.0000
     12  N         64.3300    6.5130   16.4070 N.3    58  GLY58      -0.1210
     13  CA        63.5030    6.4150   17.5950 C.3    58  GLY58       0.1956
     14  C         64.2390    6.7020   18.8970 C.2    58  GLY58       0.2612
     15  O         65.3530    7.2690   18.9060 O.2    58  GLY58      -0.2717
     16  N         63.6110    6.3120   20.0020 N.am   59  GLY59      -0.1942
     17  CA        64.0670    6.7230   21.3280 C.3    59  GLY59       0.2014
     18  C         63.0480    7.4960   22.1460 C.2    59  GLY59       0.2639
     19  O         63.4120    8.2320   23.0780 O.2    59  GLY59      -0.2714
     20  N         61.7640    7.2510   21.8900 N.am   60  GLY60      -0.1954
     21  CA        60.7000    7.8200   22.7260 C.3    60  GLY60       0.1869
     22  C         60.6140    9.3460   22.7360 C.2    60  GLY60       0.2309
     23  O         60.0620    9.9240   23.6740 O.2    60  GLY60      -0.2863
     24  N         65.4580   10.1160   23.7660 N.3    63  LEU63      -0.1231
     25  CA        66.7650    9.5010   23.4990 C.3    63  LEU63       0.1693
     26  C         67.0740    9.2710   22.0070 C.2    63  LEU63       0.2592
     27  O         66.2670    9.5450   21.1600 O.2    63  LEU63      -0.2718
     28  CB        66.8410    8.1290   24.1710 C.3    63  LEU63       0.0284
     29  CG        66.0210    7.9620   25.4270 C.3    63  LEU63       0.0019
     30  CD1       65.8870    6.5530   25.8610 C.3    63  LEU63       0.0001
     31  CD2       66.6730    8.8070   26.4840 C.3    63  LEU63       0.0001
     32  N         68.2320    8.6980   21.7230 N.am   64  GLY64      -0.1957
     33  CA        68.7130    8.4650   20.3670 C.3    64  GLY64       0.1869
     34  C         69.2080    9.7610   19.7540 C.2    64  GLY64       0.2309
     35  O         68.9260   10.8370   20.2690 O.2    64  GLY64      -0.2863
     36  N         72.5010    6.1410   16.1790 N.3    69  TYR69      -0.1241
     37  CA        71.7800    5.4450   15.1020 C.3    69  TYR69       0.1605
     38  C         72.6370    5.2190   13.8560 C.2    69  TYR69       0.2264
     39  O         72.1690    4.6820   12.8370 O.2    69  TYR69      -0.2867
     40  CB        70.4870    6.1880   14.7400 C.3    69  TYR69       0.0534
     41  CG        69.2820    5.6360   15.4760 C.ar   69  TYR69      -0.0201
     42  CD1       68.3260    4.8590   14.8150 C.ar   69  TYR69      -0.0009
     43  CD2       69.1140    5.8620   16.8290 C.ar   69  TYR69      -0.0009
     44  CE1       67.2500    4.3010   15.5000 C.ar   69  TYR69       0.0417
     45  CE2       68.0430    5.2930   17.5340 C.ar   69  TYR69       0.0417
     46  CZ        67.1120    4.5260   16.8660 C.ar   69  TYR69       0.1957
     47  OH        66.0470    3.9880   17.5630 O.3    69  TYR69      -0.2866
     48  N         61.7580    4.4940   13.0100 N.3   129  ASP129     -0.1225
     49  CA        61.4690    3.4460   13.9540 C.3   129  ASP129      0.1805
     50  C         60.8870    3.9990   15.2720 C.2   129  ASP129      0.2598
     51  O         61.3910    4.9380   15.8060 O.2   129  ASP129     -0.2718
     52  CB        62.7230    2.6250   14.2330 C.3   129  ASP129      0.1424
     53  CG        63.7760    3.4080   14.9560 C.2   129  ASP129      0.3668
     54  OD1       64.3900    4.2720   14.3710 O.co2 129  ASP129     -0.2456
     55  OD2       63.9580    3.1560   16.1170 O.co2 129  ASP129     -0.2456
     56  N         59.8320    3.3650   15.7470 N.am  130  SER130     -0.1952
     57  CA        59.2040    3.6950   17.0050 C.3   130  SER130      0.1924
     58  C         58.7290    5.1480   16.9970 C.2   130  SER130      0.2314
     59  O         57.9470    5.5110   16.1620 O.2   130  SER130     -0.2863
     60  CB        60.1460    3.3460   18.1830 C.3   130  SER130      0.2116
     61  OG        59.5300    3.3080   19.4180 O.3   130  SER130     -0.2180
     62  N         57.5820   -0.3610   13.4860 N.3   157  TYR157     -0.1241
     63  CA        56.8010   -0.3830   14.7310 C.3   157  TYR157      0.1605
     64  C         56.4730    1.0350   15.2190 C.2   157  TYR157      0.2264
     65  O         56.8820    1.3950   16.2470 O.2   157  TYR157     -0.2867
     66  CB        57.4420   -1.2360   15.8730 C.3   157  TYR157      0.0534
     67  CG        58.9550   -1.3370   15.9030 C.ar  157  TYR157     -0.0201
     68  CD1       59.7440   -0.2910   16.3300 C.ar  157  TYR157     -0.0009
     69  CD2       59.5930   -2.4880   15.5100 C.ar  157  TYR157     -0.0009
     70  CE1       61.1120   -0.4030   16.3690 C.ar  157  TYR157      0.0417
     71  CE2       60.9320   -2.5870   15.5200 C.ar  157  TYR157      0.0417
     72  CZ        61.7150   -1.5520   15.9600 C.ar  157  TYR157      0.1957
     73  OH        63.0470   -1.7030   15.9740 O.3   157  TYR157     -0.2866
     74  N         60.6360   -5.2900   27.2760 N.3   177  PHE177     -0.1227
     75  CA        61.5400   -4.1740   26.9690 C.3   177  PHE177      0.1736
     76  C         60.8800   -2.7890   26.9800 C.2   177  PHE177      0.2595
     77  O         61.2760   -1.9190   27.7550 O.2   177  PHE177     -0.2718
     78  CB        62.2080   -4.4240   25.5990 C.3   177  PHE177      0.0547
     79  CG        63.2240   -3.3760   25.2010 C.ar  177  PHE177     -0.0202
     80  CD1       63.0300   -2.6010   24.0590 C.ar  177  PHE177     -0.0042
     81  CD2       64.4130   -3.2260   25.9160 C.ar  177  PHE177     -0.0042
     82  CE1       63.9570   -1.6440   23.6800 C.ar  177  PHE177     -0.0003
     83  CE2       65.3510   -2.2680   25.5450 C.ar  177  PHE177     -0.0003
     84  CZ        65.1280   -1.4850   24.4110 C.ar  177  PHE177     -0.0000
     85  N         59.8700   -2.5900   26.1140 N.am  178  LEU178     -0.1980
     86  CA        59.0730   -1.3660   26.1610 C.3   178  LEU178      0.1596
     87  C         57.8320   -1.6380   26.9960 C.2   178  LEU178      0.2287
     88  O         56.9750   -2.4300   26.6040 O.2   178  LEU178     -0.2864
     89  CB        58.6730   -0.8710   24.7520 C.3   178  LEU178      0.0297
     90  CG        57.8150    0.4070   24.7390 C.3   178  LEU178      0.0022
     91  CD1       58.6460    1.6580   25.0340 C.3   178  LEU178      0.0001
     92  CD2       57.0540    0.5740   23.4180 C.3   178  LEU178      0.0001
     93  N         57.6970    8.5330   28.5990 N.3   186  PHE186     -0.1241
     94  CA        58.0150    9.2310   27.3520 C.3   186  PHE186      0.1605
     95  C         56.9520   10.2730   26.9940 C.2   186  PHE186      0.2264
     96  O         57.2870   11.3910   26.6370 O.2   186  PHE186     -0.2867
     97  CB        58.2150    8.2470   26.1770 C.3   186  PHE186      0.0534
     98  CG        59.4940    7.4510   26.2580 C.ar  186  PHE186     -0.0203
     99  CD1       60.7200    8.0900   26.4350 C.ar  186  PHE186     -0.0042
    100  CD2       59.4780    6.0750   26.0670 C.ar  186  PHE186     -0.0042
    101  CE1       61.9080    7.3640   26.4770 C.ar  186  PHE186     -0.0003
    102  CE2       60.6590    5.3360   26.1030 C.ar  186  PHE186     -0.0003
    103  CZ        61.8790    5.9850   26.3280 C.ar  186  PHE186     -0.0000
    104  N         59.3600   -4.9330   20.4890 N.3   253  HIS253     -0.1226
    105  CA        59.6080   -3.5420   20.1030 C.3   253  HIS253      0.1752
    106  C         61.1000   -3.1960   20.0740 C.2   253  HIS253      0.2596
    107  O         61.8350   -3.5280   21.0030 O.2   253  HIS253     -0.2718
    108  CB        58.9010   -2.5950   21.0750 C.3   253  HIS253      0.0759
    109  CG        58.8170   -1.1870   20.5850 C.ar  253  HIS253      0.0818
    110  ND1       57.9090   -0.7930   19.6210 N.ar  253  HIS253     -0.2268
    111  CD2       59.6040   -0.1110   20.8220 C.ar  253  HIS253      0.1154
    112  CE1       58.1130    0.4840   19.3240 C.ar  253  HIS253      0.1986
    113  NE2       59.1220    0.9260   20.0570 N.ar  253  HIS253     -0.2212
    114  N         61.5420   -2.5340   19.0060 N.am  254  GLY254     -0.1957
    115  CA        62.9340   -2.1410   18.8650 C.3   254  GLY254      0.1869
    116  C         63.8890   -3.1990   18.3250 C.2   254  GLY254      0.2309
    117  O         65.0950   -2.9530   18.2590 O.2   254  GLY254     -0.2863
    118  N         66.7280   -2.2540   15.7930 N.3   257  SER257     -0.1202
    119  CA        67.9200   -1.6370   16.3900 C.3   257  SER257      0.2020
    120  C         68.9600   -2.6690   16.8150 C.2   257  SER257      0.2618
    121  O         70.1470   -2.3490   16.9500 O.2   257  SER257     -0.2717
    122  CB        67.5320   -0.7910   17.6120 C.3   257  SER257      0.2103
    123  OG        66.8920    0.4150   17.2290 O.3   257  SER257     -0.2182
    124  N         68.5060   -3.8770   17.1220 N.am  258  PHE258     -0.1975
    125  CA        69.4080   -4.9240   17.5910 C.3   258  PHE258      0.1639
    126  C         69.7530   -5.9120   16.5050 C.2   258  PHE258      0.2290
    127  O         70.2130   -7.0100   16.8060 O.2   258  PHE258     -0.2864
    128  CB        68.8170   -5.6360   18.8080 C.3   258  PHE258      0.0560
    129  CG        68.6010   -4.7210   19.9660 C.ar  258  PHE258     -0.0200
    130  CD1       69.6760   -4.0180   20.5060 C.ar  258  PHE258     -0.0042
    131  CD2       67.3200   -4.3960   20.3770 C.ar  258  PHE258     -0.0042
    132  CE1       69.4770   -3.0460   21.4780 C.ar  258  PHE258     -0.0003
    133  CE2       67.1100   -3.4360   21.3640 C.ar  258  PHE258     -0.0003
    134  CZ        68.1900   -2.7590   21.9110 C.ar  258  PHE258     -0.0000
@<TRIPOS>BOND
     1    39    38    2
     2    48    49    1
     3    62    63    1
     4    38    37    1
     5    49    52    1
     6    49    50    1
     7    52    53    1
     8    54    53   ar
     9    63    64    1
    10    63    66    1
    11    40    37    1
    12    40    41    1
    13    42    41   ar
    14    42    44   ar
    15    53    55   ar
    16    37    36    1
    17    64    65    2
    18    50    56   am
    19    50    51    2
    20    41    43   ar
    21    44    46   ar
    22    69    71   ar
    23    69    67   ar
    24    71    72   ar
    25    56    57    1
    26   118   119    1
    27    66    67    1
    28    67    68   ar
    29    72    73    1
    30    72    70   ar
    31    59    58    2
    32    68    70   ar
    33   119   120    1
    34   119   122    1
    35    12    13    1
    36   126   127    2
    37   126   125    1
    38   120   121    2
    39   120   124   am
    40    43    45   ar
    41    46    45   ar
    42    46    47    1
    43    58    57    1
    44    57    60    1
    45   124   125    1
    46   123   122    1
    47   125   128    1
    48    13    14    1
    49    60    61    1
    50   117   116    2
    51   116   115    1
    52   128   129    1
    53   115   114    1
    54    14    15    2
    55    14    16   am
    56   114   106   am
    57   112   110   ar
    58   112   113   ar
    59   110   109   ar
    60    34    35    2
    61    34    33    1
    62   129   131   ar
    63   129   130   ar
    64    16    17    1
    65   113   111   ar
    66   106   105    1
    67   106   107    2
    68   105   104    1
    69   105   108    1
    70    11    10   ar
    71    11     9   ar
    72    33    32    1
    73   131   133   ar
    74   130   132   ar
    75   109   111   ar
    76   109   108    1
    77    10     8   ar
    78    27    26    2
    79     9     7   ar
    80    17    18    1
    81   133   134   ar
    82   132   134   ar
    83    32    26   am
    84     8     6   ar
    85    20    18   am
    86    20    21    1
    87    26    25    1
    88    18    19    2
    89     7     6   ar
    90    21    22    1
    91    22    23    2
    92     4     3    2
    93     6     5    1
    94    92    90    1
    95    25    24    1
    96    25    28    1
    97     3     2    1
    98    82    80   ar
    99    82    84   ar
   100    80    79   ar
   101    28    29    1
   102     5     2    1
   103    84    83   ar
   104     2     1    1
   105    90    89    1
   106    90    91    1
   107    89    86    1
   108    79    78    1
   109    79    81   ar
   110    29    30    1
   111    29    31    1
   112    83    81   ar
   113    78    75    1
   114   100   102   ar
   115   100    98   ar
   116   102   103   ar
   117    85    86    1
   118    85    76   am
   119    86    87    1
   120    97    98    1
   121    97    94    1
   122    98    99   ar
   123   103   101   ar
   124    99   101   ar
   125    88    87    2
   126    96    95    2
   127    75    76    1
   128    75    74    1
   129    76    77    2
   130    95    94    1
   131    94    93    1
