@<TRIPOS>MOLECULE
tmp/3aikB02.pdb
 114 116 0 0 0
SMALL
GASTEIGER

@<TRIPOS>ATOM
      1  N         73.1830    4.7630   25.9360 N.3    10  PHE10      -0.1241
      2  CA        72.8050    4.2640   24.6140 C.3    10  PHE10       0.1605
      3  C         73.8750    4.6010   23.5660 C.2    10  PHE10       0.2264
      4  O         74.2750    3.7390   22.7840 O.2    10  PHE10      -0.2867
      5  CB        71.4330    4.8110   24.2050 C.3    10  PHE10       0.0534
      6  CG        70.9740    4.3480   22.8430 C.ar   10  PHE10      -0.0203
      7  CD1       70.9300    2.9880   22.5310 C.ar   10  PHE10      -0.0042
      8  CD2       70.5590    5.2690   21.8830 C.ar   10  PHE10      -0.0042
      9  CE1       70.5550    2.5470   21.2560 C.ar   10  PHE10      -0.0003
     10  CE2       70.1440    4.8450   20.6260 C.ar   10  PHE10      -0.0003
     11  CZ        70.1600    3.4720   20.3010 C.ar   10  PHE10      -0.0000
     12  N         76.9000    2.0980   24.2180 N.3    13  PHE13      -0.1227
     13  CA        76.6040    0.7900   23.6800 C.3    13  PHE13       0.1736
     14  C         76.6940    0.7960   22.1620 C.2    13  PHE13       0.2596
     15  O         77.2540   -0.0680   21.5740 O.2    13  PHE13      -0.2718
     16  CB        75.2110    0.3510   24.0870 C.3    13  PHE13       0.0547
     17  CG        75.1420   -0.3900   25.3960 C.ar   13  PHE13      -0.0202
     18  CD1       75.0420    0.2690   26.5690 C.ar   13  PHE13      -0.0042
     19  CD2       75.1070   -1.7440   25.4280 C.ar   13  PHE13      -0.0042
     20  CE1       74.9390   -0.4060   27.7520 C.ar   13  PHE13      -0.0003
     21  CE2       75.0060   -2.4180   26.6110 C.ar   13  PHE13      -0.0003
     22  CZ        74.9230   -1.7420   27.7640 C.ar   13  PHE13      -0.0000
     23  N         76.1310    1.8100   21.5470 N.am   14  SER14      -0.1952
     24  CA        76.1450    1.8940   20.0900 C.3    14  SER14       0.1924
     25  C         77.5440    2.1080   19.4830 C.2    14  SER14       0.2314
     26  O         77.8290    1.6450   18.3730 O.2    14  SER14      -0.2863
     27  CB        75.1840    2.9810   19.6080 C.3    14  SER14       0.2116
     28  OG        75.0160    2.8810   18.2030 O.3    14  SER14      -0.2180
     29  N         79.1870   -1.0590   18.1710 N.3    17  THR17      -0.1218
     30  CA        78.5780   -1.8520   17.1000 C.3    17  THR17       0.1862
     31  C         79.3880   -1.8180   15.8120 C.2    17  THR17       0.2287
     32  O         79.6340   -0.7470   15.2750 O.2    17  THR17      -0.2866
     33  CB        77.1530   -1.3600   16.8070 C.3    17  THR17       0.1770
     34  OG1       76.4130   -1.3820   18.0230 O.3    17  THR17      -0.2211
     35  CG2       76.4620   -2.2550   15.7620 C.3    17  THR17       0.0375
     36  N         74.2200    7.5820   17.7550 N.3    68  SER68      -0.1202
     37  CA        73.7860    6.2950   18.2630 C.3    68  SER68       0.2020
     38  C         73.0250    5.4730   17.2100 C.2    68  SER68       0.2618
     39  O         72.9950    4.2450   17.2950 O.2    68  SER68      -0.2717
     40  CB        72.9440    6.4600   19.5230 C.3    68  SER68       0.2103
     41  OG        71.8060    7.2640   19.2670 O.3    68  SER68      -0.2182
     42  N         72.5010    6.1410   16.1790 N.am   69  TYR69      -0.1975
     43  CA        71.7800    5.4450   15.1020 C.3    69  TYR69       0.1639
     44  C         72.6370    5.2190   13.8560 C.2    69  TYR69       0.2290
     45  O         72.1690    4.6820   12.8370 O.2    69  TYR69      -0.2864
     46  CB        70.4870    6.1880   14.7400 C.3    69  TYR69       0.0560
     47  CG        69.2820    5.6360   15.4760 C.ar   69  TYR69      -0.0198
     48  CD1       68.3260    4.8590   14.8150 C.ar   69  TYR69      -0.0009
     49  CD2       69.1140    5.8620   16.8290 C.ar   69  TYR69      -0.0009
     50  CE1       67.2500    4.3010   15.5000 C.ar   69  TYR69       0.0417
     51  CE2       68.0430    5.2930   17.5340 C.ar   69  TYR69       0.0417
     52  CZ        67.1120    4.5260   16.8660 C.ar   69  TYR69       0.1957
     53  OH        66.0470    3.9880   17.5630 O.3    69  TYR69      -0.2866
     54  N         75.0980    3.0700   13.0780 N.3    71  PRO71      -0.2102
     55  CA        75.1860    1.7110   12.5070 C.3    71  PRO71       0.1504
     56  C         73.9190    1.2870   11.7380 C.2    71  PRO71       0.2575
     57  O         74.0100    0.7230   10.6330 O.2    71  PRO71      -0.2718
     58  CB        75.4240    0.8160   13.7460 C.3    71  PRO71       0.0282
     59  CG        76.0680    1.7800   14.7750 C.3    71  PRO71       0.0208
     60  CD        75.3250    3.0780   14.5390 C.3    71  PRO71       0.0893
     61  N         72.7500    1.6280   12.2740 N.am   72  LEU72      -0.1980
     62  CA        71.5030    1.3070   11.5920 C.3    72  LEU72       0.1596
     63  C         71.3650    2.0740   10.2730 C.2    72  LEU72       0.2287
     64  O         71.0400    1.4850    9.2520 O.2    72  LEU72      -0.2864
     65  CB        70.2840    1.5600   12.4920 C.3    72  LEU72       0.0297
     66  CG        68.9180    1.3010   11.8260 C.3    72  LEU72       0.0022
     67  CD1       68.8070   -0.1460   11.3180 C.3    72  LEU72       0.0001
     68  CD2       67.7470    1.6350   12.7760 C.3    72  LEU72       0.0001
     69  N         66.7280   -2.2540   15.7930 N.3   257  SER257     -0.1202
     70  CA        67.9200   -1.6370   16.3900 C.3   257  SER257      0.2020
     71  C         68.9600   -2.6690   16.8150 C.2   257  SER257      0.2619
     72  O         70.1470   -2.3490   16.9500 O.2   257  SER257     -0.2717
     73  CB        67.5320   -0.7910   17.6120 C.3   257  SER257      0.2103
     74  OG        66.8920    0.4150   17.2290 O.3   257  SER257     -0.2182
     75  N         68.5060   -3.8770   17.1220 N.am  258  PHE258     -0.1961
     76  CA        69.4080   -4.9240   17.5910 C.3   258  PHE258      0.1771
     77  C         69.7530   -5.9120   16.5050 C.2   258  PHE258      0.2620
     78  O         70.2130   -7.0100   16.8060 O.2   258  PHE258     -0.2715
     79  CB        68.8170   -5.6360   18.8080 C.3   258  PHE258      0.0574
     80  CG        68.6010   -4.7210   19.9660 C.ar  258  PHE258     -0.0200
     81  CD1       69.6760   -4.0180   20.5060 C.ar  258  PHE258     -0.0042
     82  CD2       67.3200   -4.3960   20.3770 C.ar  258  PHE258     -0.0042
     83  CE1       69.4770   -3.0460   21.4780 C.ar  258  PHE258     -0.0003
     84  CE2       67.1100   -3.4360   21.3640 C.ar  258  PHE258     -0.0003
     85  CZ        68.1900   -2.7590   21.9110 C.ar  258  PHE258     -0.0000
     86  N         69.7290   -5.4310   15.2570 N.am  259  PHE259     -0.1960
     87  CA        70.0680   -6.2340   14.0850 C.3   259  PHE259      0.1756
     88  C         71.4250   -6.9740   14.1250 C.2   259  PHE259      0.2461
     89  O         71.5650   -8.0020   13.4970 O.2   259  PHE259     -0.2730
     90  CB        69.9070   -5.4270   12.7730 C.3   259  PHE259      0.0574
     91  CG        70.9970   -4.3930   12.5500 C.ar  259  PHE259     -0.0200
     92  CD1       72.2160   -4.7580   11.9770 C.ar  259  PHE259     -0.0042
     93  CD2       70.8400   -3.0880   13.0090 C.ar  259  PHE259     -0.0042
     94  CE1       73.2370   -3.8180   11.7970 C.ar  259  PHE259     -0.0003
     95  CE2       71.8880   -2.1510   12.9160 C.ar  259  PHE259     -0.0003
     96  CZ        73.0900   -2.5200   12.3270 C.ar  259  PHE259     -0.0000
     97  N         72.4330   -6.4540   14.8520 N.am  260  PRO260     -0.2716
     98  CA        73.6700   -7.2570   14.8640 C.3   260  PRO260      0.1536
     99  C         73.5330   -8.5320   15.6990 C.2   260  PRO260      0.2598
    100  O         74.2440   -9.4950   15.4580 O.2   260  PRO260     -0.2715
    101  CB        74.7150   -6.3070   15.4830 C.3   260  PRO260      0.0310
    102  CG        74.1000   -4.9190   15.3670 C.3   260  PRO260      0.0237
    103  CD        72.6170   -5.1480   15.5100 C.3   260  PRO260      0.0939
    104  N         72.5730   -8.5650   16.5990 N.am  261  PHE261     -0.1974
    105  CA        72.3720   -9.6650   17.5110 C.3   261  PHE261      0.1639
    106  C         71.1010  -10.4550   17.2890 C.2   261  PHE261      0.2290
    107  O         71.0130  -11.5600   17.7290 O.2   261  PHE261     -0.2864
    108  CB        72.3390   -9.1570   18.9500 C.3   261  PHE261      0.0560
    109  CG        73.2510   -8.0200   19.2090 C.ar  261  PHE261     -0.0200
    110  CD1       72.7600   -6.7620   19.4670 C.ar  261  PHE261     -0.0042
    111  CD2       74.6190   -8.1980   19.1830 C.ar  261  PHE261     -0.0042
    112  CE1       73.6130   -5.7060   19.6870 C.ar  261  PHE261     -0.0003
    113  CE2       75.4740   -7.1370   19.4320 C.ar  261  PHE261     -0.0003
    114  CZ        74.9630   -5.8960   19.6760 C.ar  261  PHE261     -0.0000
@<TRIPOS>BOND
     1    64    63    2
     2    63    62    1
     3    57    56    2
     4    67    66    1
     5    62    61    1
     6    62    65    1
     7    56    61   am
     8    56    55    1
     9    94    92   ar
    10    94    96   ar
    11    66    65    1
    12    66    68    1
    13    92    91   ar
    14    96    95   ar
    15    55    54    1
    16    55    58    1
    17    91    90    1
    18    91    93   ar
    19    90    87    1
    20    45    44    2
    21    95    93   ar
    22    54    60    1
    23    89    88    2
    24    58    59    1
    25    44    43    1
    26    87    88    1
    27    87    86    1
    28    88    97   am
    29    60    59    1
    30    46    43    1
    31    46    47    1
    32    48    47   ar
    33    48    50   ar
    34    97    98    1
    35    97   103    1
    36    98   101    1
    37    98    99    1
    38    43    42    1
    39    86    77   am
    40    32    31    2
    41   102   101    1
    42   102   103    1
    43   100    99    2
    44    47    49   ar
    45    50    52   ar
    46    99   104   am
    47    35    33    1
    48    69    70    1
    49    31    30    1
    50    42    38   am
    51    70    71    1
    52    70    73    1
    53    77    78    2
    54    77    76    1
    55   104   105    1
    56    33    30    1
    57    33    34    1
    58    71    72    2
    59    71    75   am
    60    49    51   ar
    61    52    51   ar
    62    52    53    1
    63    30    29    1
    64    75    76    1
    65    38    39    2
    66    38    37    1
    67    74    73    1
    68   106   105    1
    69   106   107    2
    70   105   108    1
    71    76    79    1
    72    36    37    1
    73    28    27    1
    74    37    40    1
    75    26    25    2
    76    79    80    1
    77   108   109    1
    78   111   109   ar
    79   111   113   ar
    80   109   110   ar
    81    41    40    1
    82   113   114   ar
    83   110   112   ar
    84    25    24    1
    85    27    24    1
    86   114   112   ar
    87    80    82   ar
    88    80    81   ar
    89    24    23    1
    90    11    10   ar
    91    11     9   ar
    92    82    84   ar
    93    81    83   ar
    94    10     8   ar
    95     9     7   ar
    96    84    85   ar
    97    83    85   ar
    98    23    14   am
    99    15    14    2
   100     8     6   ar
   101    14    13    1
   102     7     6   ar
   103     4     3    2
   104     6     5    1
   105     3     2    1
   106    13    16    1
   107    13    12    1
   108    16    17    1
   109     5     2    1
   110     2     1    1
   111    17    19   ar
   112    17    18   ar
   113    19    21   ar
   114    18    20   ar
   115    21    22   ar
   116    20    22   ar
