@<TRIPOS>MOLECULE
tmp/3ailA00.pdb
 119 114 0 0 0
SMALL
GASTEIGER

@<TRIPOS>ATOM
      1  N        -16.4320   14.5430   22.2130 N.3    59  GLY59      -0.1210
      2  CA       -16.9930   15.2060   21.0280 C.3    59  GLY59       0.1956
      3  C        -16.2120   16.4100   20.5430 C.2    59  GLY59       0.2612
      4  O        -16.7140   17.2010   19.7080 O.2    59  GLY59      -0.2717
      5  N        -14.9240   16.4410   20.8840 N.am   60  GLY60      -0.1942
      6  CA       -13.9910   17.3440   20.2190 C.3    60  GLY60       0.2014
      7  C        -14.1930   18.7940   20.6470 C.2    60  GLY60       0.2638
      8  O        -13.7570   19.7150   19.9450 O.2    60  GLY60      -0.2714
      9  N        -14.8560   18.9830   21.7920 N.am   61  PHE61      -0.1973
     10  CA       -15.3280   20.2920   22.2810 C.3    61  PHE61       0.1639
     11  C        -16.4330   20.9420   21.4680 C.2    61  PHE61       0.2290
     12  O        -16.7910   22.0840   21.7470 O.2    61  PHE61      -0.2864
     13  CB       -14.1860   21.3000   22.4430 C.3    61  PHE61       0.0560
     14  CG       -13.0740   20.8050   23.3220 C.ar   61  PHE61      -0.0200
     15  CD1      -13.1730   20.8980   24.7110 C.ar   61  PHE61      -0.0042
     16  CD2      -11.9520   20.2290   22.7610 C.ar   61  PHE61      -0.0042
     17  CE1      -12.1560   20.4140   25.5230 C.ar   61  PHE61      -0.0003
     18  CE2      -10.9420   19.7060   23.5820 C.ar   61  PHE61      -0.0003
     19  CZ       -11.0520   19.8220   24.9520 C.ar   61  PHE61      -0.0000
     20  N        -19.0890   18.6910   19.6730 N.3    63  LEU63      -0.1245
     21  CA       -20.2140   17.7730   19.5340 C.3    63  LEU63       0.1561
     22  C        -20.4840   17.0830   20.8720 C.2    63  LEU63       0.2260
     23  O        -19.7110   17.2240   21.8250 O.2    63  LEU63      -0.2867
     24  CB       -19.9090   16.7090   18.4570 C.3    63  LEU63       0.0270
     25  CG       -19.4780   17.2630   17.0850 C.3    63  LEU63       0.0019
     26  CD1      -19.0910   16.1210   16.1490 C.3    63  LEU63       0.0001
     27  CD2      -20.6940   18.0290   16.4840 C.3    63  LEU63       0.0001
     28  N        -25.0100   11.0770   25.2480 N.3    69  TYR69      -0.1241
     29  CA       -24.1830   10.3070   26.1830 C.3    69  TYR69       0.1605
     30  C        -24.9980    9.5790   27.2450 C.2    69  TYR69       0.2264
     31  O        -24.4540    8.9310   28.1400 O.2    69  TYR69      -0.2867
     32  CB       -23.1070   11.2060   26.8210 C.3    69  TYR69       0.0534
     33  CG       -21.8540   11.2330   26.0040 C.ar   69  TYR69      -0.0201
     34  CD1      -20.7160   10.5480   26.4200 C.ar   69  TYR69      -0.0009
     35  CD2      -21.8290   11.8470   24.7470 C.ar   69  TYR69      -0.0009
     36  CE1      -19.5710   10.5110   25.6280 C.ar   69  TYR69       0.0417
     37  CE2      -20.6600   11.8390   23.9570 C.ar   69  TYR69       0.0417
     38  CZ       -19.5520   11.1430   24.3920 C.ar   69  TYR69       0.1957
     39  OH       -18.3990   11.1080   23.6180 O.3    69  TYR69      -0.2866
     40  N        -14.3880   11.1860   28.3450 N.3   129  ASP129     -0.1225
     41  CA       -13.7940   10.5100   27.1920 C.3   129  ASP129      0.1805
     42  C        -13.3440   11.5420   26.1470 C.2   129  ASP129      0.2598
     43  O        -14.0230   12.5390   25.9240 O.2   129  ASP129     -0.2718
     44  CB       -14.7880    9.5040   26.5840 C.3   129  ASP129      0.1424
     45  CG       -16.0290   10.1780   26.0050 C.2   129  ASP129      0.3668
     46  OD1      -16.7790   10.8150   26.7740 O.co2 129  ASP129     -0.2456
     47  OD2      -16.2400   10.0900   24.7690 O.co2 129  ASP129     -0.2456
     48  N        -12.2020   11.4230   25.5800 N.am  130  SER130     -0.1938
     49  CA       -11.6420   12.3080   24.5390 C.3   130  SER130      0.2055
     50  C        -11.4430   13.7930   24.9390 C.2   130  SER130      0.2642
     51  O        -10.6600   14.1030   25.8460 O.2   130  SER130     -0.2714
     52  CB       -12.4160   12.1550   23.2200 C.3   130  SER130      0.2130
     53  OG       -11.6340   12.6690   22.1560 O.3   130  SER130     -0.2179
     54  N        -12.1250   14.6700   24.3920 N.am  131  ALA131     -0.1977
     55  CA       -12.2550   16.0410   24.9490 C.3   131  ALA131      0.1597
     56  C        -12.7660   16.0630   26.3980 C.2   131  ALA131      0.2287
     57  O        -12.4070   16.9490   27.1930 O.2   131  ALA131     -0.2864
     58  CB       -13.1540   16.9180   24.0440 C.3   131  ALA131      0.0319
     59  N         -7.4730   13.5320   25.2310 N.3   159  ALA159     -0.1245
     60  CA        -6.5160   14.3580   24.5020 C.3   159  ALA159      0.1562
     61  C         -5.8590   15.2780   25.5280 C.2   159  ALA159      0.2260
     62  O         -6.5580   15.9780   26.2560 O.2   159  ALA159     -0.2867
     63  CB        -7.2620   15.1800   23.4330 C.3   159  ALA159      0.0290
     64  N        -11.7390    6.0110   12.1170 N.3   177  PHE177     -0.1227
     65  CA       -12.8700    6.7730   12.6280 C.3   177  PHE177      0.1736
     66  C        -12.5040    8.2020   13.0570 C.2   177  PHE177      0.2595
     67  O        -13.0620    9.1670   12.5320 O.2   177  PHE177     -0.2718
     68  CB       -13.5460    6.0390   13.7940 C.3   177  PHE177      0.0547
     69  CG       -14.7630    6.7570   14.3480 C.ar  177  PHE177     -0.0202
     70  CD1      -14.8210    7.1290   15.6880 C.ar  177  PHE177     -0.0042
     71  CD2      -15.8490    7.0530   13.5280 C.ar  177  PHE177     -0.0042
     72  CE1      -15.9510    7.7440   16.2100 C.ar  177  PHE177     -0.0003
     73  CE2      -16.9840    7.6610   14.0470 C.ar  177  PHE177     -0.0003
     74  CZ       -17.0350    8.0060   15.3910 C.ar  177  PHE177     -0.0000
     75  N        -11.5880    8.3290   14.0370 N.am  178  LEU178     -0.1980
     76  CA       -11.0950    9.6500   14.4140 C.3   178  LEU178      0.1596
     77  C         -9.8170    9.8830   13.6100 C.2   178  LEU178      0.2287
     78  O         -8.8380    9.1330   13.7520 O.2   178  LEU178     -0.2864
     79  CB       -10.7970    9.7460   15.9190 C.3   178  LEU178      0.0297
     80  CG       -10.0930   11.0180   16.3930 C.3   178  LEU178      0.0022
     81  CD1      -11.0520   12.2210   16.1950 C.3   178  LEU178      0.0001
     82  CD2       -9.7070   10.8730   17.8840 C.3   178  LEU178      0.0001
     83  N         -9.2620   15.9530   14.0210 N.3   183  ILE183     -0.1245
     84  CA        -8.5810   16.4970   15.1650 C.3   183  ILE183      0.1561
     85  C         -8.2410   17.9670   14.8890 C.2   183  ILE183      0.2260
     86  O         -8.4290   18.8270   15.7510 O.2   183  ILE183     -0.2867
     87  CB        -7.2930   15.6960   15.4640 C.3   183  ILE183      0.0252
     88  CG1       -7.6490   14.3100   16.0240 C.3   183  ILE183      0.0019
     89  CG2       -6.4300   16.4480   16.4510 C.3   183  ILE183      0.0019
     90  CD1       -6.4130   13.4140   16.2840 C.3   183  ILE183      0.0001
     91  N        -11.4490   20.1340   14.9150 N.3   186  PHE186     -0.1241
     92  CA       -11.9300   20.3910   16.2750 C.3   186  PHE186      0.1605
     93  C        -11.0680   21.4510   16.9340 C.2   186  PHE186      0.2264
     94  O        -11.5680   22.3230   17.6550 O.2   186  PHE186     -0.2867
     95  CB       -11.9100   19.1070   17.1250 C.3   186  PHE186      0.0534
     96  CG       -12.9770   18.1110   16.7540 C.ar  186  PHE186     -0.0203
     97  CD1      -14.3180   18.4830   16.7010 C.ar  186  PHE186     -0.0042
     98  CD2      -12.6480   16.7800   16.5050 C.ar  186  PHE186     -0.0042
     99  CE1      -15.2990   17.5490   16.3980 C.ar  186  PHE186     -0.0003
    100  CE2      -13.6340   15.8360   16.2420 C.ar  186  PHE186     -0.0003
    101  CZ       -14.9510   16.2180   16.1870 C.ar  186  PHE186     -0.0000
    102  N         -4.7120    9.3060   19.3220 N.3   225  LEU225     -0.1245
    103  CA        -4.4450    9.9150   20.6510 C.3   225  LEU225      0.1561
    104  C         -3.7550    8.9450   21.6330 C.2   225  LEU225      0.2260
    105  O         -3.4930    9.2910   22.7850 O.2   225  LEU225     -0.2867
    106  CB        -5.7740   10.3880   21.2780 C.3   225  LEU225      0.0270
    107  CG        -6.5970   11.4460   20.5200 C.3   225  LEU225      0.0019
    108  CD1       -7.8520   11.7870   21.3620 C.3   225  LEU225      0.0001
    109  CD2       -5.7560   12.7110   20.2980 C.3   225  LEU225      0.0001
    110  N        -10.4850    4.5610   18.6940 N.3   253  HIS253     -0.1241
    111  CA       -11.0700    5.6420   19.4650 C.3   253  HIS253      0.1621
    112  C        -12.6110    5.5440   19.5000 C.2   253  HIS253      0.2264
    113  O        -13.2580    5.3660   18.4640 O.2   253  HIS253     -0.2867
    114  CB       -10.6500    6.9880   18.8460 C.3   253  HIS253      0.0745
    115  CG       -11.0800    8.1670   19.6520 C.ar  253  HIS253      0.0817
    116  ND1      -10.3010    8.6790   20.6700 N.ar  253  HIS253     -0.2268
    117  CD2      -12.2840    8.7780   19.7560 C.ar  253  HIS253      0.1154
    118  CE1      -10.9500    9.6720   21.2510 C.ar  253  HIS253      0.1986
    119  NE2      -12.1870    9.6870   20.7850 N.ar  253  HIS253     -0.2212
@<TRIPOS>BOND
     1    64    65    1
     2    67    66    2
     3    65    66    1
     4    65    68    1
     5    66    75   am
     6    71    73   ar
     7    71    69   ar
     8    77    78    2
     9    77    76    1
    10    68    69    1
    11    83    84    1
    12    75    76    1
    13    73    74   ar
    14    69    70   ar
    15    76    79    1
    16    85    84    1
    17    85    86    2
    18    91    92    1
    19    84    87    1
    20    74    72   ar
    21    87    88    1
    22    87    89    1
    23    70    72   ar
    24    79    80    1
    25    88    90    1
    26    26    25    1
    27   101   100   ar
    28   101    99   ar
    29    81    80    1
    30   100    98   ar
    31    92    93    1
    32    92    95    1
    33    80    82    1
    34    99    97   ar
    35    27    25    1
    36    98    96   ar
    37    97    96   ar
    38    96    95    1
    39    93    94    2
    40    25    24    1
    41    24    21    1
    42   113   112    2
    43   110   111    1
    44   114   111    1
    45   114   115    1
    46   102   103    1
    47   111   112    1
    48    21    20    1
    49    21    22    1
    50   115   117   ar
    51   115   116   ar
    52     4     3    2
    53   117   119   ar
    54     8     7    2
    55     6     7    1
    56     6     5    1
    57   109   107    1
    58   107   106    1
    59   107   108    1
    60     3     5   am
    61     3     2    1
    62     7     9   am
    63   103   106    1
    64   103   104    1
    65   116   118   ar
    66   119   118   ar
    67    22    23    2
    68     2     1    1
    69    11    12    2
    70    11    10    1
    71   104   105    2
    72     9    10    1
    73    53    52    1
    74    10    13    1
    75    13    14    1
    76    16    14   ar
    77    16    18   ar
    78    52    49    1
    79    14    15   ar
    80    63    60    1
    81    18    19   ar
    82    39    38    1
    83    37    38   ar
    84    37    35   ar
    85    58    55    1
    86    54    50   am
    87    54    55    1
    88    38    36   ar
    89    60    59    1
    90    60    61    1
    91    49    50    1
    92    49    48    1
    93    15    17   ar
    94    35    33   ar
    95    47    45   ar
    96    50    51    2
    97    55    56    1
    98    19    17   ar
    99    28    29    1
   100    61    62    2
   101    48    42   am
   102    36    34   ar
   103    43    42    2
   104    33    34   ar
   105    33    32    1
   106    45    44    1
   107    45    46   ar
   108    42    41    1
   109    29    32    1
   110    29    30    1
   111    56    57    2
   112    44    41    1
   113    41    40    1
   114    30    31    2
