@<TRIPOS>MOLECULE
tmp/3ainD00.pdb
 91 86 0 0 0
SMALL
GASTEIGER

@<TRIPOS>ATOM
      1  N          5.9820  -21.5020   35.3690 N.3    60  GLY60      -0.1210
      2  CA         6.9130  -22.0520   34.3610 C.3    60  GLY60       0.1956
      3  C          6.8860  -23.5660   34.2120 C.2    60  GLY60       0.2611
      4  O          7.8490  -24.1480   33.7210 O.2    60  GLY60      -0.2717
      5  N          5.7650  -24.1780   34.6080 N.am   61  PHE61      -0.1976
      6  CA         5.5570  -25.6440   34.6070 C.3    61  PHE61       0.1639
      7  C          6.3710  -26.3720   35.6620 C.2    61  PHE61       0.2290
      8  O          6.3360  -27.6020   35.7190 O.2    61  PHE61      -0.2864
      9  CB         5.7600  -26.3000   33.2160 C.3    61  PHE61       0.0560
     10  CG         4.9970  -25.6240   32.0990 C.ar   61  PHE61      -0.0200
     11  CD1        3.6420  -25.8750   31.9040 C.ar   61  PHE61      -0.0042
     12  CD2        5.6660  -24.8070   31.1810 C.ar   61  PHE61      -0.0042
     13  CE1        2.9390  -25.2720   30.8620 C.ar   61  PHE61      -0.0003
     14  CE2        4.9590  -24.1170   30.2110 C.ar   61  PHE61      -0.0003
     15  CZ         3.6160  -24.3870   30.0000 C.ar   61  PHE61      -0.0000
     16  N          0.3580  -17.0330   32.9700 N.3   130  SER130     -0.1202
     17  CA         1.6960  -17.4240   32.5080 C.3   130  SER130      0.2020
     18  C          1.6810  -18.8610   31.9440 C.2   130  SER130      0.2618
     19  O          0.8650  -19.1610   31.0810 O.2   130  SER130     -0.2717
     20  CB         2.7140  -17.2270   33.6270 C.3   130  SER130      0.2103
     21  OG         4.0630  -17.3170   33.1380 O.3   130  SER130     -0.2182
     22  N          2.4770  -19.7760   32.5190 N.am  131  ALA131     -0.1979
     23  CA         2.3850  -21.2020   32.1600 C.3   131  ALA131      0.1597
     24  C          0.9780  -21.7480   32.3880 C.2   131  ALA131      0.2287
     25  O          0.4770  -22.5610   31.6060 O.2   131  ALA131     -0.2864
     26  CB         3.4210  -22.0280   32.9820 C.3   131  ALA131      0.0319
     27  N          1.8160  -17.9700   27.9310 N.3   159  ALA159     -0.1245
     28  CA         2.8380  -18.4250   27.0140 C.3   159  ALA159      0.1562
     29  C          2.1500  -19.2170   25.9250 C.2   159  ALA159      0.2260
     30  O          1.4190  -20.1530   26.2240 O.2   159  ALA159     -0.2867
     31  CB         3.8120  -19.3340   27.7790 C.3   159  ALA159      0.0290
     32  N         10.9840  -11.9280   34.6490 N.3   178  LEU178     -0.1245
     33  CA        11.0840  -13.0780   33.7520 C.3   178  LEU178      0.1561
     34  C         12.0740  -12.8040   32.6130 C.2   178  LEU178      0.2260
     35  O         11.8420  -11.9290   31.7820 O.2   178  LEU178     -0.2867
     36  CB         9.7090  -13.4330   33.1810 C.3   178  LEU178      0.0270
     37  CG         9.6670  -14.5740   32.1480 C.3   178  LEU178      0.0019
     38  CD1        9.8760  -15.9470   32.8280 C.3   178  LEU178      0.0001
     39  CD2        8.3650  -14.5430   31.3740 C.3   178  LEU178      0.0001
     40  N         13.1160  -18.3300   30.7560 N.3   183  ILE183     -0.1245
     41  CA        12.3210  -18.9770   29.7100 C.3   183  ILE183      0.1561
     42  C         13.0060  -20.2280   29.1710 C.2   183  ILE183      0.2260
     43  O         12.3970  -21.2790   29.0710 O.2   183  ILE183     -0.2867
     44  CB        12.0000  -17.9930   28.5610 C.3   183  ILE183      0.0252
     45  CG1       11.1010  -16.8830   29.1170 C.3   183  ILE183      0.0019
     46  CG2       11.3140  -18.7100   27.3880 C.3   183  ILE183      0.0019
     47  CD1       10.8770  -15.6910   28.1500 C.3   183  ILE183      0.0001
     48  N         13.0210  -23.0590   32.0930 N.3   186  PHE186     -0.1227
     49  CA        11.7180  -23.7130   32.2580 C.3   186  PHE186      0.1736
     50  C         11.4270  -24.6560   31.0910 C.2   186  PHE186      0.2596
     51  O         10.8900  -25.7420   31.2820 O.2   186  PHE186     -0.2718
     52  CB        10.5950  -22.6650   32.3830 C.3   186  PHE186      0.0547
     53  CG        10.6360  -21.8720   33.6610 C.ar  186  PHE186     -0.0202
     54  CD1       10.5280  -22.5030   34.8950 C.ar  186  PHE186     -0.0042
     55  CD2       10.5890  -20.4810   33.6270 C.ar  186  PHE186     -0.0042
     56  CE1       10.4400  -21.7670   36.0680 C.ar  186  PHE186     -0.0003
     57  CE2       10.4680  -19.7370   34.7950 C.ar  186  PHE186     -0.0003
     58  CZ        10.3800  -20.3880   36.0280 C.ar  186  PHE186     -0.0000
     59  N         11.6920  -24.2170   29.8630 N.am  187  GLY187     -0.1957
     60  CA        11.3940  -25.0370   28.6990 C.3   187  GLY187      0.1869
     61  C         12.2280  -26.3180   28.7080 C.2   187  GLY187      0.2309
     62  O         11.7630  -27.3770   28.3100 O.2   187  GLY187     -0.2863
     63  N          1.9870  -27.6400   23.5120 N.3   202  PHE202     -0.1241
     64  CA         2.9910  -26.7570   24.1080 C.3   202  PHE202      0.1605
     65  C          2.8630  -25.3350   23.5630 C.2   202  PHE202      0.2264
     66  O          2.9880  -24.3660   24.3100 O.2   202  PHE202     -0.2867
     67  CB         4.4170  -27.2640   23.8300 C.3   202  PHE202      0.0534
     68  CG         5.5020  -26.3310   24.3140 C.ar  202  PHE202     -0.0203
     69  CD1        5.5450  -25.9320   25.6400 C.ar  202  PHE202     -0.0042
     70  CD2        6.3650  -25.7200   23.4170 C.ar  202  PHE202     -0.0042
     71  CE1        6.5300  -25.0650   26.1090 C.ar  202  PHE202     -0.0003
     72  CE2        7.3240  -24.8010   23.8740 C.ar  202  PHE202     -0.0003
     73  CZ         7.4410  -24.5260   25.2270 C.ar  202  PHE202     -0.0000
     74  N          6.8060  -11.8930   26.9690 N.3   225  LEU225     -0.1245
     75  CA         5.6770  -12.6070   26.3740 C.3   225  LEU225      0.1561
     76  C          4.5710  -11.6910   25.8210 C.2   225  LEU225      0.2260
     77  O          3.5650  -12.1870   25.3090 O.2   225  LEU225     -0.2867
     78  CB         5.0350  -13.5480   27.4100 C.3   225  LEU225      0.0270
     79  CG         5.8840  -14.6230   28.0990 C.3   225  LEU225      0.0019
     80  CD1        4.9670  -15.6950   28.7220 C.3   225  LEU225      0.0001
     81  CD2        6.8650  -15.2670   27.1840 C.3   225  LEU225      0.0001
     82  N          5.7040   -9.0350   33.6460 N.3   253  HIS253     -0.1241
     83  CA         5.1220  -10.3740   33.7300 C.3   253  HIS253      0.1621
     84  C          4.9120  -10.7000   35.2040 C.2   253  HIS253      0.2264
     85  O          5.7970  -10.4640   36.0190 O.2   253  HIS253     -0.2867
     86  CB         6.1190  -11.4070   33.1820 C.3   253  HIS253      0.0745
     87  CG         5.4800  -12.7260   32.8350 C.ar  253  HIS253      0.0817
     88  ND1        5.6110  -13.8600   33.6160 N.ar  253  HIS253     -0.2268
     89  CD2        4.5760  -13.0350   31.8800 C.ar  253  HIS253      0.1154
     90  CE1        4.9170  -14.8450   33.0710 C.ar  253  HIS253      0.1986
     91  NE2        4.3190  -14.3810   31.9870 N.ar  253  HIS253     -0.2212
@<TRIPOS>BOND
     1    70    72   ar
     2    70    68   ar
     3    63    64    1
     4    65    64    1
     5    65    66    2
     6    67    64    1
     7    67    68    1
     8    72    73   ar
     9    68    69   ar
    10    73    71   ar
    11    77    76    2
    12    69    71   ar
    13    76    75    1
    14    29    30    2
    15    29    28    1
    16    75    74    1
    17    75    78    1
    18    28    31    1
    19    28    27    1
    20    81    79    1
    21    46    44    1
    22    78    79    1
    23    79    80    1
    24    47    45    1
    25    62    61    2
    26    44    45    1
    27    44    41    1
    28    60    61    1
    29    60    59    1
    30    43    42    2
    31    42    41    1
    32    41    40    1
    33    59    50   am
    34    15    14   ar
    35    15    13   ar
    36    14    12   ar
    37    13    11   ar
    38    19    18    2
    39    50    51    2
    40    50    49    1
    41    12    10   ar
    42    39    37    1
    43    25    24    2
    44    35    34    2
    45    89    91   ar
    46    89    87   ar
    47    11    10   ar
    48    18    17    1
    49    18    22   am
    50    91    90   ar
    51    48    49    1
    52    10     9    1
    53    37    38    1
    54    37    36    1
    55    23    24    1
    56    23    22    1
    57    23    26    1
    58    49    52    1
    59    52    53    1
    60    17    16    1
    61    17    20    1
    62    34    33    1
    63    87    86    1
    64    87    88   ar
    65    90    88   ar
    66    21    20    1
    67    36    33    1
    68    86    83    1
    69     9     6    1
    70    55    53   ar
    71    55    57   ar
    72    82    83    1
    73    53    54   ar
    74     4     3    2
    75    83    84    1
    76    33    32    1
    77     3     2    1
    78     3     5   am
    79     2     1    1
    80     6     5    1
    81     6     7    1
    82    57    58   ar
    83    54    56   ar
    84    84    85    2
    85     7     8    2
    86    58    56   ar
