@<TRIPOS>MOLECULE
tmp/3ainD01.pdb
 87 84 0 0 0
SMALL
GASTEIGER

@<TRIPOS>ATOM
      1  N          6.8420  -21.1710   21.5300 N.3   162  PHE162     -0.1241
      2  CA         8.2870  -21.0240   21.4700 C.3   162  PHE162      0.1605
      3  C          8.6010  -19.7790   20.6350 C.2   162  PHE162      0.2264
      4  O          7.9900  -19.5570   19.6050 O.2   162  PHE162     -0.2867
      5  CB         8.8970  -22.2570   20.7670 C.3   162  PHE162      0.0534
      6  CG        10.3970  -22.2390   20.7120 C.ar  162  PHE162     -0.0203
      7  CD1       11.0630  -22.0560   19.5060 C.ar  162  PHE162     -0.0042
      8  CD2       11.1460  -22.2230   21.8880 C.ar  162  PHE162     -0.0042
      9  CE1       12.4660  -21.9420   19.4730 C.ar  162  PHE162     -0.0003
     10  CE2       12.5460  -22.1460   21.8500 C.ar  162  PHE162     -0.0003
     11  CZ        13.1970  -21.9590   20.6430 C.ar  162  PHE162     -0.0000
     12  N         14.3090  -20.1200   28.9250 N.3   184  ASP184     -0.1239
     13  CA        15.0820  -21.2470   28.4290 C.3   184  ASP184      0.1674
     14  C         15.0420  -22.3880   29.4450 C.2   184  ASP184      0.2266
     15  O         14.8710  -23.5450   29.0660 O.2   184  ASP184     -0.2867
     16  CB        16.5420  -20.8100   28.2270 C.3   184  ASP184      0.1410
     17  CG        16.7230  -19.9210   26.9920 C.2   184  ASP184      0.3668
     18  OD1       15.7170  -19.6050   26.3220 O.co2 184  ASP184     -0.2456
     19  OD2       17.8280  -19.3760   26.8140 O.co2 184  ASP184     -0.2456
     20  N         11.6920  -24.2170   29.8630 N.3   187  GLY187     -0.1210
     21  CA        11.3940  -25.0370   28.6990 C.3   187  GLY187      0.1956
     22  C         12.2280  -26.3180   28.7080 C.2   187  GLY187      0.2611
     23  O         11.7630  -27.3770   28.3100 O.2   187  GLY187     -0.2717
     24  N         13.4580  -26.2070   29.1890 N.am  188  GLN188     -0.1979
     25  CA        14.3580  -27.3500   29.2810 C.3   188  GLN188      0.1601
     26  C         13.8740  -28.3370   30.3370 C.2   188  GLN188      0.2287
     27  O         13.8920  -29.5450   30.1040 O.2   188  GLN188     -0.2864
     28  CB        15.7620  -26.8850   29.6420 C.3   188  GLN188      0.0394
     29  CG        16.5120  -26.2510   28.4700 C.3   188  GLN188      0.0908
     30  CD        17.6720  -25.3730   28.9080 C.2   188  GLN188      0.2608
     31  OE1       18.0440  -25.3440   30.0820 O.2   188  GLN188     -0.2717
     32  NE2       18.1640  -24.5520   27.9850 N.am  188  GLN188     -0.0878
     33  N         10.0770  -29.7010   28.6140 N.3   191  LEU191     -0.1231
     34  CA         9.9530  -30.4520   27.3680 C.3   191  LEU191      0.1693
     35  C         10.8710  -31.7000   27.3250 C.2   191  LEU191      0.2592
     36  O         11.8750  -31.7690   28.0420 O.2   191  LEU191     -0.2718
     37  CB        10.2620  -29.5520   26.1560 C.3   191  LEU191      0.0284
     38  CG         9.3280  -28.3510   25.9740 C.3   191  LEU191      0.0019
     39  CD1        9.7270  -27.6540   24.6540 C.3   191  LEU191      0.0001
     40  CD2        7.8850  -28.8010   25.9130 C.3   191  LEU191      0.0001
     41  N         10.4990  -32.6580   26.4790 N.am  192  ARG192     -0.1966
     42  CA        11.2410  -33.9240   26.3340 C.3   192  ARG192      0.1729
     43  C         12.3010  -33.8450   25.2500 C.2   192  ARG192      0.2617
     44  O         13.4270  -34.3350   25.4240 O.2   192  ARG192     -0.2715
     45  CB        10.2830  -35.0510   25.9910 C.3   192  ARG192      0.0348
     46  CG         9.3310  -35.3680   27.1270 C.3   192  ARG192      0.0492
     47  CD         8.2050  -36.2490   26.6670 C.3   192  ARG192      0.2205
     48  NE         7.4790  -35.6540   25.5560 N.pl3 192  ARG192     -0.0865
     49  CZ         6.4230  -36.1980   24.9740 C.cat 192  ARG192      0.5346
     50  NH1        5.8800  -37.2990   25.4780 N.pl3 192  ARG192      0.1354
     51  NH2        5.8680  -35.6210   23.9220 N.pl3 192  ARG192      0.1354
     52  N         11.9170  -33.2890   24.1060 N.am  193  SER193     -0.1936
     53  CA        12.8270  -33.1710   22.9680 C.3   193  SER193      0.2055
     54  C         12.3850  -31.9950   22.1030 C.2   193  SER193      0.2643
     55  O         11.3260  -31.4080   22.3340 O.2   193  SER193     -0.2714
     56  CB        12.8110  -34.4530   22.1240 C.3   193  SER193      0.2130
     57  OG        11.5960  -34.5740   21.4040 O.3   193  SER193     -0.2179
     58  N         13.2090  -31.6470   21.1230 N.am  194  PHE194     -0.1973
     59  CA        12.8920  -30.5630   20.1990 C.3   194  PHE194      0.1639
     60  C         11.5950  -30.8000   19.4370 C.2   194  PHE194      0.2290
     61  O         10.9080  -29.8520   19.0700 O.2   194  PHE194     -0.2864
     62  CB        14.0670  -30.2960   19.2340 C.3   194  PHE194      0.0560
     63  CG        15.2790  -29.7130   19.9030 C.ar  194  PHE194     -0.0200
     64  CD1       15.2620  -28.4130   20.3930 C.ar  194  PHE194     -0.0042
     65  CD2       16.4460  -30.4530   20.0290 C.ar  194  PHE194     -0.0042
     66  CE1       16.3730  -27.8780   21.0370 C.ar  194  PHE194     -0.0003
     67  CE2       17.5610  -29.9240   20.6680 C.ar  194  PHE194     -0.0003
     68  CZ        17.5340  -28.6250   21.1490 C.ar  194  PHE194     -0.0000
     69  N          8.3610  -28.9650   20.2310 N.3   197  LEU197     -0.1245
     70  CA         8.1260  -27.6040   19.7470 C.3   197  LEU197      0.1561
     71  C          7.1050  -27.5670   18.6080 C.2   197  LEU197      0.2260
     72  O          6.5410  -26.5140   18.3060 O.2   197  LEU197     -0.2867
     73  CB         9.4460  -26.9540   19.3040 C.3   197  LEU197      0.0270
     74  CG        10.5340  -26.7710   20.3580 C.3   197  LEU197      0.0019
     75  CD1       11.7990  -26.1290   19.7680 C.3   197  LEU197      0.0001
     76  CD2       10.0430  -25.9580   21.5270 C.3   197  LEU197      0.0001
     77  N          1.9870  -27.6400   23.5120 N.3   202  PHE202     -0.1241
     78  CA         2.9910  -26.7570   24.1080 C.3   202  PHE202      0.1605
     79  C          2.8630  -25.3350   23.5630 C.2   202  PHE202      0.2264
     80  O          2.9880  -24.3660   24.3100 O.2   202  PHE202     -0.2867
     81  CB         4.4170  -27.2640   23.8300 C.3   202  PHE202      0.0534
     82  CG         5.5020  -26.3310   24.3140 C.ar  202  PHE202     -0.0203
     83  CD1        5.5450  -25.9320   25.6400 C.ar  202  PHE202     -0.0042
     84  CD2        6.3650  -25.7200   23.4170 C.ar  202  PHE202     -0.0042
     85  CE1        6.5300  -25.0650   26.1090 C.ar  202  PHE202     -0.0003
     86  CE2        7.3240  -24.8010   23.8740 C.ar  202  PHE202     -0.0003
     87  CZ         7.4410  -24.5260   25.2270 C.ar  202  PHE202     -0.0000
@<TRIPOS>BOND
     1    72    71    2
     2    71    70    1
     3    61    60    2
     4    62    63    1
     5    62    59    1
     6    73    70    1
     7    73    74    1
     8    60    59    1
     9     9     7   ar
    10     9    11   ar
    11     7     6   ar
    12     4     3    2
    13    70    69    1
    14    75    74    1
    15    63    65   ar
    16    63    64   ar
    17    65    67   ar
    18    59    58    1
    19    74    76    1
    20    64    66   ar
    21     3     2    1
    22    11    10   ar
    23    67    68   ar
    24     6     5    1
    25     6     8   ar
    26     5     2    1
    27    66    68   ar
    28    58    54   am
    29    57    56    1
    30     2     1    1
    31    10     8   ar
    32    54    55    2
    33    54    53    1
    34    56    53    1
    35    53    52    1
    36    84    86   ar
    37    84    82   ar
    38    77    78    1
    39    79    78    1
    40    79    80    2
    41    81    78    1
    42    81    82    1
    43    86    87   ar
    44    51    49    1
    45    52    43   am
    46    82    83   ar
    47    39    38    1
    48    49    50    1
    49    49    48    2
    50    87    85   ar
    51    43    44    2
    52    43    42    1
    53    48    47    1
    54    83    85   ar
    55    40    38    1
    56    38    37    1
    57    45    42    1
    58    45    46    1
    59    37    34    1
    60    18    17   ar
    61    42    41    1
    62    41    35   am
    63    47    46    1
    64    19    17   ar
    65    17    16    1
    66    35    34    1
    67    35    36    2
    68    34    33    1
    69    32    30   am
    70    16    13    1
    71    23    22    2
    72    13    12    1
    73    13    14    1
    74    29    30    1
    75    29    28    1
    76    21    22    1
    77    21    20    1
    78    22    24   am
    79    30    31    2
    80    15    14    2
    81    24    25    1
    82    25    28    1
    83    25    26    1
    84    27    26    2
