@<TRIPOS>MOLECULE
tmp/3aisA00.pdb
 160 158 0 0 0
SMALL
GASTEIGER

@<TRIPOS>ATOM
      1  N          7.0890   11.1640  -36.6020 N.3    32  GLN32      -0.1245
      2  CA         5.7750   11.7680  -36.7580 C.3    32  GLN32       0.1566
      3  C          5.4920   13.0070  -35.9200 C.2    32  GLN32       0.2260
      4  O          4.5540   13.7410  -36.2200 O.2    32  GLN32      -0.2867
      5  CB         4.6970   10.7130  -36.5030 C.3    32  GLN32       0.0367
      6  CG         4.6830    9.6280  -37.5740 C.3    32  GLN32       0.0905
      7  CD         3.6410    8.5710  -37.3180 C.2    32  GLN32       0.2608
      8  OE1        3.8730    7.6200  -36.5660 O.2    32  GLN32      -0.2717
      9  NE2        2.4770    8.7300  -37.9360 N.am   32  GLN32      -0.0878
     10  N         10.5940    2.6490  -35.2660 N.3   134  HIS134     -0.1226
     11  CA         9.2950    2.8990  -35.8700 C.3   134  HIS134      0.1752
     12  C          9.4980    3.3690  -37.3230 C.2   134  HIS134      0.2596
     13  O          9.1680    4.5060  -37.6680 O.2   134  HIS134     -0.2718
     14  CB         8.5560    3.9570  -35.0390 C.3   134  HIS134      0.0759
     15  CG         7.0610    3.8920  -35.1360 C.ar  134  HIS134      0.0818
     16  ND1        6.3820    3.9770  -36.3340 N.ar  134  HIS134     -0.2268
     17  CD2        6.1100    3.8410  -34.1700 C.ar  134  HIS134      0.1154
     18  CE1        5.0800    3.9880  -36.1020 C.ar  134  HIS134      0.1986
     19  NE2        4.8890    3.9080  -34.7970 N.ar  134  HIS134     -0.2212
     20  N         10.0620    2.4840  -38.1540 N.am  135  TRP135     -0.1976
     21  CA        10.3020    2.7380  -39.5850 C.3   135  TRP135      0.1640
     22  C         11.3990    3.7740  -39.7950 C.2   135  TRP135      0.2290
     23  O         11.7610    4.1220  -40.9170 O.2   135  TRP135     -0.2864
     24  CB         9.0150    3.2310  -40.2460 C.3   135  TRP135      0.0576
     25  CG         7.8000    2.3990  -39.9400 C.ar  135  TRP135      0.0006
     26  CD1        7.7600    1.2100  -39.2620 C.ar  135  TRP135      0.0946
     27  CD2        6.4550    2.6810  -40.3350 C.ar  135  TRP135      0.0152
     28  NE1        6.4700    0.7350  -39.2150 N.ar  135  TRP135     -0.2442
     29  CE2        5.6490    1.6190  -39.8660 C.ar  135  TRP135      0.0810
     30  CE3        5.8500    3.7270  -41.0420 C.ar  135  TRP135      0.0012
     31  CZ2        4.2720    1.5730  -40.0810 C.ar  135  TRP135      0.0191
     32  CZ3        4.4790    3.6820  -41.2580 C.ar  135  TRP135      0.0001
     33  CH2        3.7050    2.6100  -40.7790 C.ar  135  TRP135      0.0015
     34  N          7.8050   -1.6550  -34.5130 N.3   179  ASN179     -0.1225
     35  CA         6.3940   -1.3170  -34.6380 C.3   179  ASN179      0.1785
     36  C          5.8880   -1.6090  -36.0460 C.2   179  ASN179      0.2597
     37  O          6.5460   -1.2780  -37.0360 O.2   179  ASN179     -0.2718
     38  CB         6.1570    0.1620  -34.3430 C.3   179  ASN179      0.1169
     39  CG         4.6840    0.5110  -34.3090 C.2   179  ASN179      0.2627
     40  OD1        3.9850    0.1650  -33.3640 O.2   179  ASN179     -0.2716
     41  ND2        4.2000    1.1790  -35.3510 N.am  179  ASN179     -0.0877
     42  N          4.7160   -2.2330  -36.1240 N.am  180  ALA180     -0.1979
     43  CA         4.0750   -2.5520  -37.3950 C.3   180  ALA180      0.1597
     44  C          4.9890   -3.1080  -38.4920 C.2   180  ALA180      0.2287
     45  O          5.0750   -2.5360  -39.5810 O.2   180  ALA180     -0.2864
     46  CB         3.3450   -1.3120  -37.9160 C.3   180  ALA180      0.0319
     47  N          3.1340   -3.8620  -41.9800 N.3   183  THR183     -0.1218
     48  CA         2.8440   -2.6830  -42.7880 C.3   183  THR183      0.1862
     49  C          4.1300   -2.0830  -43.3610 C.2   183  THR183      0.2287
     50  O          4.1680   -1.6690  -44.5190 O.2   183  THR183     -0.2866
     51  CB         2.0610   -1.6280  -41.9730 C.3   183  THR183      0.1770
     52  OG1        0.6870   -2.0400  -41.8810 O.3   183  THR183     -0.2211
     53  CG2        2.1250   -0.2530  -42.6460 C.3   183  THR183      0.0375
     54  N          0.9840   -4.7080  -36.3980 N.3   251  ASP251     -0.1239
     55  CA        -0.1630   -4.0390  -36.9940 C.3   251  ASP251      0.1674
     56  C         -1.0390   -5.1990  -37.4430 C.2   251  ASP251      0.2266
     57  O         -0.5550   -6.1440  -38.0730 O.2   251  ASP251     -0.2867
     58  CB         0.2280   -3.1740  -38.2060 C.3   251  ASP251      0.1410
     59  CG         0.9320   -3.9620  -39.3020 C.2   251  ASP251      0.3668
     60  OD1        2.1460   -4.2280  -39.1610 O.co2 251  ASP251     -0.2456
     61  OD2        0.2730   -4.3180  -40.3050 O.co2 251  ASP251     -0.2456
     62  N         -1.6400   -3.1910  -32.9020 N.3   321  ASN321     -0.1240
     63  CA        -2.0500   -1.9050  -33.4760 C.3   321  ASN321      0.1653
     64  C         -3.2800   -2.2070  -34.3240 C.2   321  ASN321      0.2266
     65  O         -3.1690   -2.7460  -35.4230 O.2   321  ASN321     -0.2867
     66  CB        -0.9340   -1.3150  -34.3500 C.3   321  ASN321      0.1155
     67  CG         0.3400   -1.0500  -33.5700 C.2   321  ASN321      0.2627
     68  OD1        0.3080   -0.8670  -32.3510 O.2   321  ASN321     -0.2716
     69  ND2        1.4690   -1.0100  -34.2710 N.am  321  ASN321     -0.0877
     70  N         -6.9360   -0.9200  -36.1870 N.3   323  TYR323     -0.1241
     71  CA        -7.7430    0.1780  -36.7040 C.3   323  TYR323      0.1605
     72  C         -9.0030   -0.2710  -37.4160 C.2   323  TYR323      0.2264
     73  O        -10.0600    0.3430  -37.2670 O.2   323  TYR323     -0.2867
     74  CB        -6.9490    1.0190  -37.7010 C.3   323  TYR323      0.0534
     75  CG        -5.7270    1.6700  -37.1250 C.ar  323  TYR323     -0.0201
     76  CD1       -4.5080    0.9920  -37.0800 C.ar  323  TYR323     -0.0009
     77  CD2       -5.7840    2.9730  -36.6280 C.ar  323  TYR323     -0.0009
     78  CE1       -3.3700    1.6020  -36.5560 C.ar  323  TYR323      0.0417
     79  CE2       -4.6560    3.5920  -36.1040 C.ar  323  TYR323      0.0417
     80  CZ        -3.4560    2.9080  -36.0720 C.ar  323  TYR323      0.1957
     81  OH        -2.3390    3.5310  -35.5620 O.3   323  TYR323     -0.2866
     82  N         -9.1620    4.0860  -45.6160 N.3   368  TRP368     -0.1241
     83  CA        -8.9100    2.7070  -45.2070 C.3   368  TRP368      0.1605
     84  C         -9.4270    2.2990  -43.8330 C.2   368  TRP368      0.2264
     85  O         -9.3450    1.1240  -43.4670 O.2   368  TRP368     -0.2867
     86  CB        -7.4140    2.3880  -45.2900 C.3   368  TRP368      0.0550
     87  CG        -6.5830    3.1950  -44.3540 C.ar  368  TRP368      0.0003
     88  CD1       -6.2040    4.4970  -44.5090 C.ar  368  TRP368      0.0946
     89  CD2       -6.0610    2.7720  -43.0910 C.ar  368  TRP368      0.0152
     90  NE1       -5.4780    4.9120  -43.4210 N.ar  368  TRP368     -0.2442
     91  CE2       -5.3760    3.8710  -42.5340 C.ar  368  TRP368      0.0810
     92  CE3       -6.1080    1.5680  -42.3730 C.ar  368  TRP368      0.0012
     93  CZ2       -4.7390    3.8050  -41.2900 C.ar  368  TRP368      0.0191
     94  CZ3       -5.4750    1.5020  -41.1370 C.ar  368  TRP368      0.0001
     95  CH2       -4.8000    2.6130  -40.6090 C.ar  368  TRP368      0.0015
     96  N         -1.9740    0.7400  -30.4460 N.3   396  GLU396     -0.1245
     97  CA        -2.4580    1.7240  -31.4100 C.3   396  GLU396      0.1567
     98  C         -3.9250    1.4410  -31.7040 C.2   396  GLU396      0.2260
     99  O         -4.3220    0.2870  -31.8640 O.2   396  GLU396     -0.2867
    100  CB        -1.6440    1.6630  -32.7070 C.3   396  GLU396      0.0388
    101  CG        -0.2520    2.2560  -32.5840 C.3   396  GLU396      0.1160
    102  CD         0.4850    2.3220  -33.9040 C.2   396  GLU396      0.3649
    103  OE1       -0.1800    2.4390  -34.9550 O.co2 396  GLU396     -0.2457
    104  OE2        1.7340    2.2760  -33.8920 O.co2 396  GLU396     -0.2457
    105  N         -4.0960    5.6090  -30.6880 N.3   444  TRP444     -0.1241
    106  CA        -3.1270    6.2390  -31.5760 C.3   444  TRP444      0.1605
    107  C         -3.5340    7.6700  -31.9040 C.2   444  TRP444      0.2264
    108  O         -4.6160    7.8420  -32.4670 O.2   444  TRP444     -0.2867
    109  CB        -2.9870    5.4300  -32.8670 C.3   444  TRP444      0.0550
    110  CG        -2.1540    6.1070  -33.9110 C.ar  444  TRP444      0.0003
    111  CD1       -2.5340    6.4220  -35.1840 C.ar  444  TRP444      0.0946
    112  CD2       -0.7990    6.5520  -33.7730 C.ar  444  TRP444      0.0152
    113  NE1       -1.4990    7.0360  -35.8460 N.ar  444  TRP444     -0.2442
    114  CE2       -0.4210    7.1280  -35.0030 C.ar  444  TRP444      0.0810
    115  CE3        0.1520    6.4640  -32.7530 C.ar  444  TRP444      0.0012
    116  CZ2        0.8630    7.6140  -35.2390 C.ar  444  TRP444      0.0191
    117  CZ3        1.4260    6.9460  -32.9890 C.ar  444  TRP444      0.0001
    118  CH2        1.7710    7.5140  -34.2210 C.ar  444  TRP444      0.0015
    119  N          1.3440   11.9520  -40.8520 N.3   451  GLU451     -0.1231
    120  CA         0.8480   10.6250  -41.1820 C.3   451  GLU451      0.1699
    121  C          1.4590   10.0360  -42.4510 C.2   451  GLU451      0.2592
    122  O          0.7650    9.7250  -43.4160 O.2   451  GLU451     -0.2718
    123  CB        -0.6780   10.6500  -41.2830 C.3   451  GLU451      0.0402
    124  CG        -1.3880   10.9100  -39.9500 C.3   451  GLU451      0.1161
    125  CD        -1.0530    9.8730  -38.8720 C.2   451  GLU451      0.3649
    126  OE1       -0.6300    8.7460  -39.2250 O.co2 451  GLU451     -0.2457
    127  OE2       -1.2330   10.1830  -37.6720 O.co2 451  GLU451     -0.2457
    128  N          2.7770    9.8920  -42.4320 N.am  452  TRP452     -0.1976
    129  CA         3.5120    9.3210  -43.5490 C.3   452  TRP452      0.1640
    130  C          3.0610    9.8410  -44.9190 C.2   452  TRP452      0.2290
    131  O          2.9060   11.0480  -45.0970 O.2   452  TRP452     -0.2864
    132  CB         3.4290    7.7920  -43.4640 C.3   452  TRP452      0.0576
    133  CG         3.7290    7.2920  -42.0640 C.ar  452  TRP452      0.0006
    134  CD1        2.8350    6.7610  -41.1720 C.ar  452  TRP452      0.0946
    135  CD2        4.9940    7.3340  -41.3800 C.ar  452  TRP452      0.0152
    136  NE1        3.4610    6.4740  -39.9810 N.ar  452  TRP452     -0.2442
    137  CE2        4.7840    6.8140  -40.0800 C.ar  452  TRP452      0.0810
    138  CE3        6.2800    7.7620  -41.7380 C.ar  452  TRP452      0.0012
    139  CZ2        5.8140    6.7090  -39.1380 C.ar  452  TRP452      0.0191
    140  CZ3        7.3060    7.6580  -40.8010 C.ar  452  TRP452      0.0001
    141  CH2        7.0640    7.1340  -39.5140 C.ar  452  TRP452      0.0015
    142  N          0.4780   10.4380  -46.2230 N.3   454  LEU454     -0.1245
    143  CA        -0.7130   11.2830  -46.2630 C.3   454  LEU454      0.1561
    144  C         -0.4520   12.6400  -45.5980 C.2   454  LEU454      0.2260
    145  O         -1.3550   13.4630  -45.4420 O.2   454  LEU454     -0.2867
    146  CB        -1.9030   10.5750  -45.6060 C.3   454  LEU454      0.0270
    147  CG        -2.3830    9.3190  -46.3500 C.3   454  LEU454      0.0019
    148  CD1       -3.6120    8.7450  -45.6720 C.3   454  LEU454      0.0001
    149  CD2       -2.7050    9.6720  -47.7960 C.3   454  LEU454      0.0001
    150  N         -5.0100   12.3730  -36.5110 N.3   460  PHE460     -0.1241
    151  CA        -5.2930   11.1960  -35.6830 C.3   460  PHE460      0.1605
    152  C         -5.2520   11.4760  -34.1830 C.2   460  PHE460      0.2264
    153  O         -5.5110   10.5830  -33.3800 O.2   460  PHE460     -0.2867
    154  CB        -4.2590   10.1010  -35.9730 C.3   460  PHE460      0.0534
    155  CG        -4.6410    9.1690  -37.0860 C.ar  460  PHE460     -0.0203
    156  CD1       -5.3280    7.9850  -36.8130 C.ar  460  PHE460     -0.0042
    157  CD2       -4.2990    9.4580  -38.4030 C.ar  460  PHE460     -0.0042
    158  CE1       -5.6650    7.1020  -37.8350 C.ar  460  PHE460     -0.0003
    159  CE2       -4.6310    8.5840  -39.4340 C.ar  460  PHE460     -0.0003
    160  CZ        -5.3170    7.4000  -39.1470 C.ar  460  PHE460     -0.0000
@<TRIPOS>BOND
     1   149   147    1
     2   147   148    1
     3   147   146    1
     4   143   142    1
     5   143   146    1
     6   143   144    1
     7    82    83    1
     8   144   145    2
     9    86    83    1
    10    86    87    1
    11    83    84    1
    12   131   130    2
    13   130   129    1
    14    50    49    2
    15    88    87   ar
    16    88    90   ar
    17    87    89   ar
    18    84    85    2
    19   129   132    1
    20   129   128    1
    21   132   133    1
    22    90    91   ar
    23   122   121    2
    24    49    48    1
    25    89    91   ar
    26    89    92   ar
    27    48    47    1
    28    48    51    1
    29    53    51    1
    30    91    93   ar
    31   121   128   am
    32   121   120    1
    33    92    94   ar
    34   133   135   ar
    35   133   134   ar
    36    51    52    1
    37   138   135   ar
    38   138   140   ar
    39   135   137   ar
    40    93    95   ar
    41   123   120    1
    42   123   124    1
    43    32    30   ar
    44    32    33   ar
    45   120   119    1
    46   134   136   ar
    47    94    95   ar
    48    30    27   ar
    49    23    22    2
    50   140   141   ar
    51    33    31   ar
    52    27    25   ar
    53    27    29   ar
    54    61    59   ar
    55    24    25    1
    56    24    21    1
    57    31    29   ar
    58   137   136   ar
    59   137   139   ar
    60   124   125    1
    61    25    26   ar
    62    29    28   ar
    63    22    21    1
    64    21    20    1
    65    45    44    2
    66   141   139   ar
    67   159   160   ar
    68   159   157   ar
    69    59    60   ar
    70    59    58    1
    71    26    28   ar
    72   126   125   ar
    73   160   158   ar
    74   125   127   ar
    75    44    43    1
    76   157   155   ar
    77    58    55    1
    78    20    12   am
    79    57    56    2
    80     9     7   am
    81    46    43    1
    82   158   156   ar
    83    74    75    1
    84    74    71    1
    85    13    12    2
    86     6     7    1
    87     6     5    1
    88    56    55    1
    89    72    73    2
    90    72    71    1
    91    43    42    1
    92    12    11    1
    93     7     8    2
    94    75    76   ar
    95    75    77   ar
    96   155   156   ar
    97   155   154    1
    98    76    78   ar
    99    37    36    2
   100    55    54    1
   101     2     1    1
   102     2     5    1
   103     2     3    1
   104    71    70    1
   105    77    79   ar
   106    78    80   ar
   107   150   151    1
   108    16    18   ar
   109    16    15   ar
   110     4     3    2
   111    42    36   am
   112    79    80   ar
   113    18    19   ar
   114    80    81    1
   115    36    35    1
   116   154   151    1
   117    11    10    1
   118    11    14    1
   119   113   111   ar
   120   113   114   ar
   121   151   152    1
   122    65    64    2
   123    41    39   am
   124   116   114   ar
   125   116   118   ar
   126   111   110   ar
   127    15    14    1
   128    15    17   ar
   129   114   112   ar
   130   103   102   ar
   131    19    17   ar
   132    35    34    1
   133    35    38    1
   134    66    67    1
   135    66    63    1
   136    38    39    1
   137    64    63    1
   138    39    40    2
   139    69    67   am
   140   118   117   ar
   141   152   153    2
   142   110   112   ar
   143   110   109    1
   144   102   104   ar
   145   102   101    1
   146   112   115   ar
   147    67    68    2
   148    63    62    1
   149   117   115   ar
   150   109   106    1
   151   100   101    1
   152   100    97    1
   153   108   107    2
   154   107   106    1
   155    99    98    2
   156    98    97    1
   157   106   105    1
   158    97    96    1
