@<TRIPOS>MOLECULE
tmp/3aisA01.pdb
 172 171 0 0 0
SMALL
GASTEIGER

@<TRIPOS>ATOM
      1  N         10.0620    2.4840  -38.1540 N.3   135  TRP135     -0.1241
      2  CA        10.3020    2.7380  -39.5850 C.3   135  TRP135      0.1605
      3  C         11.3990    3.7740  -39.7950 C.2   135  TRP135      0.2264
      4  O         11.7610    4.1220  -40.9170 O.2   135  TRP135     -0.2867
      5  CB         9.0150    3.2310  -40.2460 C.3   135  TRP135      0.0550
      6  CG         7.8000    2.3990  -39.9400 C.ar  135  TRP135      0.0003
      7  CD1        7.7600    1.2100  -39.2620 C.ar  135  TRP135      0.0946
      8  CD2        6.4550    2.6810  -40.3350 C.ar  135  TRP135      0.0152
      9  NE1        6.4700    0.7350  -39.2150 N.ar  135  TRP135     -0.2442
     10  CE2        5.6490    1.6190  -39.8660 C.ar  135  TRP135      0.0810
     11  CE3        5.8500    3.7270  -41.0420 C.ar  135  TRP135      0.0012
     12  CZ2        4.2720    1.5730  -40.0810 C.ar  135  TRP135      0.0191
     13  CZ3        4.4790    3.6820  -41.2580 C.ar  135  TRP135      0.0001
     14  CH2        3.7050    2.6100  -40.7790 C.ar  135  TRP135      0.0015
     15  N          7.8050   -1.6550  -34.5130 N.3   179  ASN179     -0.1225
     16  CA         6.3940   -1.3170  -34.6380 C.3   179  ASN179      0.1785
     17  C          5.8880   -1.6090  -36.0460 C.2   179  ASN179      0.2597
     18  O          6.5460   -1.2780  -37.0360 O.2   179  ASN179     -0.2718
     19  CB         6.1570    0.1620  -34.3430 C.3   179  ASN179      0.1169
     20  CG         4.6840    0.5110  -34.3090 C.2   179  ASN179      0.2627
     21  OD1        3.9850    0.1650  -33.3640 O.2   179  ASN179     -0.2716
     22  ND2        4.2000    1.1790  -35.3510 N.am  179  ASN179     -0.0877
     23  N          4.7160   -2.2330  -36.1240 N.am  180  ALA180     -0.1979
     24  CA         4.0750   -2.5520  -37.3950 C.3   180  ALA180      0.1597
     25  C          4.9890   -3.1080  -38.4920 C.2   180  ALA180      0.2287
     26  O          5.0750   -2.5360  -39.5810 O.2   180  ALA180     -0.2864
     27  CB         3.3450   -1.3120  -37.9160 C.3   180  ALA180      0.0319
     28  N          4.6620   -5.7600  -40.4460 N.3   182  HIS182     -0.1226
     29  CA         3.9200   -6.1500  -41.6430 C.3   182  HIS182      0.1752
     30  C          3.6350   -4.9530  -42.5500 C.2   182  HIS182      0.2596
     31  O          3.8710   -5.0150  -43.7550 O.2   182  HIS182     -0.2718
     32  CB         2.6120   -6.8610  -41.2450 C.3   182  HIS182      0.0759
     33  CG         1.5920   -6.9430  -42.3410 C.ar  182  HIS182      0.0818
     34  ND1        0.6540   -5.9550  -42.5600 N.ar  182  HIS182     -0.2268
     35  CD2        1.3430   -7.9070  -43.2610 C.ar  182  HIS182      0.1154
     36  CE1       -0.1320   -6.3090  -43.5630 C.ar  182  HIS182      0.1986
     37  NE2        0.2650   -7.4890  -44.0060 N.ar  182  HIS182     -0.2212
     38  N          3.1340   -3.8620  -41.9800 N.am  183  THR183     -0.1953
     39  CA         2.8440   -2.6830  -42.7880 C.3   183  THR183      0.1897
     40  C          4.1300   -2.0830  -43.3610 C.2   183  THR183      0.2313
     41  O          4.1680   -1.6690  -44.5190 O.2   183  THR183     -0.2863
     42  CB         2.0610   -1.6280  -41.9730 C.3   183  THR183      0.1794
     43  OG1        0.6870   -2.0400  -41.8810 O.3   183  THR183     -0.2208
     44  CG2        2.1250   -0.2530  -42.6460 C.3   183  THR183      0.0378
     45  N          4.4670   -1.7500  -47.3880 N.3   187  PHE187     -0.1241
     46  CA         4.5400   -0.4210  -47.9840 C.3   187  PHE187      0.1605
     47  C          5.9160    0.0810  -48.3930 C.2   187  PHE187      0.2264
     48  O          6.0360    0.8050  -49.3810 O.2   187  PHE187     -0.2867
     49  CB         3.8840    0.6070  -47.0560 C.3   187  PHE187      0.0534
     50  CG         2.3910    0.4490  -46.9290 C.ar  187  PHE187     -0.0203
     51  CD1        1.6700   -0.2830  -47.8700 C.ar  187  PHE187     -0.0042
     52  CD2        1.7030    1.0600  -45.8870 C.ar  187  PHE187     -0.0042
     53  CE1        0.2800   -0.4040  -47.7760 C.ar  187  PHE187     -0.0003
     54  CE2        0.3170    0.9480  -45.7810 C.ar  187  PHE187     -0.0003
     55  CZ        -0.3970    0.2140  -46.7270 C.ar  187  PHE187     -0.0000
     56  N          5.3370    2.7960  -51.2780 N.3   193  ILE193     -0.1231
     57  CA         4.7830    4.1070  -50.9710 C.3   193  ILE193      0.1692
     58  C          5.4180    4.7030  -49.7220 C.2   193  ILE193      0.2592
     59  O          5.1960    5.8720  -49.4080 O.2   193  ILE193     -0.2718
     60  CB         3.2590    4.0430  -50.7550 C.3   193  ILE193      0.0266
     61  CG1        2.9350    3.1090  -49.5860 C.3   193  ILE193      0.0019
     62  CG2        2.5750    3.5790  -52.0300 C.3   193  ILE193      0.0020
     63  CD1        1.4680    3.1220  -49.1820 C.3   193  ILE193      0.0001
     64  N          6.1920    3.8910  -49.0060 N.am  194  HIS194     -0.1976
     65  CA         6.8790    4.3400  -47.7940 C.3   194  HIS194      0.1656
     66  C          8.3830    4.1970  -47.9710 C.2   194  HIS194      0.2291
     67  O          8.8420    3.3470  -48.7370 O.2   194  HIS194     -0.2864
     68  CB         6.4440    3.5180  -46.5690 C.3   194  HIS194      0.0771
     69  CG         5.0940    3.8830  -46.0360 C.ar  194  HIS194      0.0820
     70  ND1        4.5870    3.3480  -44.8710 N.ar  194  HIS194     -0.2267
     71  CD2        4.1460    4.7290  -46.5060 C.ar  194  HIS194      0.1154
     72  CE1        3.3850    3.8480  -44.6460 C.ar  194  HIS194      0.1986
     73  NE2        3.0940    4.6890  -45.6230 N.ar  194  HIS194     -0.2212
     74  N          0.9840   -4.7080  -36.3980 N.3   251  ASP251     -0.1239
     75  CA        -0.1630   -4.0390  -36.9940 C.3   251  ASP251      0.1674
     76  C         -1.0390   -5.1990  -37.4430 C.2   251  ASP251      0.2266
     77  O         -0.5550   -6.1440  -38.0730 O.2   251  ASP251     -0.2867
     78  CB         0.2280   -3.1740  -38.2060 C.3   251  ASP251      0.1410
     79  CG         0.9320   -3.9620  -39.3020 C.2   251  ASP251      0.3668
     80  OD1        2.1460   -4.2280  -39.1610 O.co2 251  ASP251     -0.2456
     81  OD2        0.2730   -4.3180  -40.3050 O.co2 251  ASP251     -0.2456
     82  N         -5.2100   -6.3060  -38.8400 N.3   253  MET253     -0.1245
     83  CA        -6.5680   -5.9780  -39.2420 C.3   253  MET253      0.1570
     84  C         -7.3800   -7.2150  -38.9130 C.2   253  MET253      0.2261
     85  O         -6.8470   -8.3250  -38.9300 O.2   253  MET253     -0.2867
     86  CB        -6.6720   -5.7210  -40.7490 C.3   253  MET253      0.0387
     87  CG        -6.2000   -4.3480  -41.2060 C.3   253  MET253      0.0595
     88  SD        -6.7000   -4.0530  -42.9110 S.3   253  MET253     -0.1393
     89  CE        -5.7930   -2.5430  -43.2680 C.3   253  MET253      0.0692
     90  N         -1.6400   -3.1910  -32.9020 N.3   321  ASN321     -0.1240
     91  CA        -2.0500   -1.9050  -33.4760 C.3   321  ASN321      0.1653
     92  C         -3.2800   -2.2070  -34.3240 C.2   321  ASN321      0.2266
     93  O         -3.1690   -2.7460  -35.4230 O.2   321  ASN321     -0.2867
     94  CB        -0.9340   -1.3150  -34.3500 C.3   321  ASN321      0.1155
     95  CG         0.3400   -1.0500  -33.5700 C.2   321  ASN321      0.2627
     96  OD1        0.3080   -0.8670  -32.3510 O.2   321  ASN321     -0.2716
     97  ND2        1.4690   -1.0100  -34.2710 N.am  321  ASN321     -0.0877
     98  N         -6.9360   -0.9200  -36.1870 N.3   323  TYR323     -0.1241
     99  CA        -7.7430    0.1780  -36.7040 C.3   323  TYR323      0.1605
    100  C         -9.0030   -0.2710  -37.4160 C.2   323  TYR323      0.2264
    101  O        -10.0600    0.3430  -37.2670 O.2   323  TYR323     -0.2867
    102  CB        -6.9490    1.0190  -37.7010 C.3   323  TYR323      0.0534
    103  CG        -5.7270    1.6700  -37.1250 C.ar  323  TYR323     -0.0201
    104  CD1       -4.5080    0.9920  -37.0800 C.ar  323  TYR323     -0.0009
    105  CD2       -5.7840    2.9730  -36.6280 C.ar  323  TYR323     -0.0009
    106  CE1       -3.3700    1.6020  -36.5560 C.ar  323  TYR323      0.0417
    107  CE2       -4.6560    3.5920  -36.1040 C.ar  323  TYR323      0.0417
    108  CZ        -3.4560    2.9080  -36.0720 C.ar  323  TYR323      0.1957
    109  OH        -2.3390    3.5310  -35.5620 O.3   323  TYR323     -0.2866
    110  N         -9.9490    6.9000  -46.0130 N.3   367  TYR367     -0.1227
    111  CA       -10.4730    5.7960  -46.8110 C.3   367  TYR367      0.1736
    112  C        -10.2370    4.3540  -46.3500 C.2   367  TYR367      0.2595
    113  O        -11.0350    3.4760  -46.6680 O.2   367  TYR367     -0.2718
    114  CB        -9.9750    5.9360  -48.2560 C.3   367  TYR367      0.0548
    115  CG        -8.5190    5.5650  -48.4240 C.ar  367  TYR367     -0.0200
    116  CD1       -8.1450    4.2590  -48.7420 C.ar  367  TYR367     -0.0009
    117  CD2       -7.5150    6.5080  -48.2260 C.ar  367  TYR367     -0.0009
    118  CE1       -6.8060    3.9040  -48.8600 C.ar  367  TYR367      0.0417
    119  CE2       -6.1740    6.1650  -48.3380 C.ar  367  TYR367      0.0417
    120  CZ        -5.8260    4.8620  -48.6550 C.ar  367  TYR367      0.1957
    121  OH        -4.4970    4.5230  -48.7640 O.3   367  TYR367     -0.2866
    122  N         -9.1620    4.0860  -45.6160 N.am  368  TRP368     -0.1976
    123  CA        -8.9100    2.7070  -45.2070 C.3   368  TRP368      0.1640
    124  C         -9.4270    2.2990  -43.8330 C.2   368  TRP368      0.2290
    125  O         -9.3450    1.1240  -43.4670 O.2   368  TRP368     -0.2864
    126  CB        -7.4140    2.3880  -45.2900 C.3   368  TRP368      0.0576
    127  CG        -6.5830    3.1950  -44.3540 C.ar  368  TRP368      0.0006
    128  CD1       -6.2040    4.4970  -44.5090 C.ar  368  TRP368      0.0946
    129  CD2       -6.0610    2.7720  -43.0910 C.ar  368  TRP368      0.0152
    130  NE1       -5.4780    4.9120  -43.4210 N.ar  368  TRP368     -0.2442
    131  CE2       -5.3760    3.8710  -42.5340 C.ar  368  TRP368      0.0810
    132  CE3       -6.1080    1.5680  -42.3730 C.ar  368  TRP368      0.0012
    133  CZ2       -4.7390    3.8050  -41.2900 C.ar  368  TRP368      0.0191
    134  CZ3       -5.4750    1.5020  -41.1370 C.ar  368  TRP368      0.0001
    135  CH2       -4.8000    2.6130  -40.6090 C.ar  368  TRP368      0.0015
    136  N         -1.9740    0.7400  -30.4460 N.3   396  GLU396     -0.1245
    137  CA        -2.4580    1.7240  -31.4100 C.3   396  GLU396      0.1567
    138  C         -3.9250    1.4410  -31.7040 C.2   396  GLU396      0.2260
    139  O         -4.3220    0.2870  -31.8640 O.2   396  GLU396     -0.2867
    140  CB        -1.6440    1.6630  -32.7070 C.3   396  GLU396      0.0388
    141  CG        -0.2520    2.2560  -32.5840 C.3   396  GLU396      0.1160
    142  CD         0.4850    2.3220  -33.9040 C.2   396  GLU396      0.3649
    143  OE1       -0.1800    2.4390  -34.9550 O.co2 396  GLU396     -0.2457
    144  OE2        1.7340    2.2760  -33.8920 O.co2 396  GLU396     -0.2457
    145  N          2.7770    9.8920  -42.4320 N.3   452  TRP452     -0.1227
    146  CA         3.5120    9.3210  -43.5490 C.3   452  TRP452      0.1737
    147  C          3.0610    9.8410  -44.9190 C.2   452  TRP452      0.2596
    148  O          2.9060   11.0480  -45.0970 O.2   452  TRP452     -0.2718
    149  CB         3.4290    7.7920  -43.4640 C.3   452  TRP452      0.0564
    150  CG         3.7290    7.2920  -42.0640 C.ar  452  TRP452      0.0003
    151  CD1        2.8350    6.7610  -41.1720 C.ar  452  TRP452      0.0946
    152  CD2        4.9940    7.3340  -41.3800 C.ar  452  TRP452      0.0152
    153  NE1        3.4610    6.4740  -39.9810 N.ar  452  TRP452     -0.2442
    154  CE2        4.7840    6.8140  -40.0800 C.ar  452  TRP452      0.0810
    155  CE3        6.2800    7.7620  -41.7380 C.ar  452  TRP452      0.0012
    156  CZ2        5.8140    6.7090  -39.1380 C.ar  452  TRP452      0.0191
    157  CZ3        7.3060    7.6580  -40.8010 C.ar  452  TRP452      0.0001
    158  CH2        7.0640    7.1340  -39.5140 C.ar  452  TRP452      0.0015
    159  N          2.8380    8.9500  -45.8820 N.am  453  SER453     -0.1938
    160  CA         2.4560    9.3870  -47.2240 C.3   453  SER453      0.2055
    161  C          1.2000   10.2560  -47.3250 C.2   453  SER453      0.2642
    162  O          0.8830   10.7530  -48.4040 O.2   453  SER453     -0.2714
    163  CB         2.3240    8.1850  -48.1680 C.3   453  SER453      0.2130
    164  OG         1.1600    7.4280  -47.8880 O.3   453  SER453     -0.2179
    165  N          0.4780   10.4380  -46.2230 N.am  454  LEU454     -0.1977
    166  CA        -0.7130   11.2830  -46.2630 C.3   454  LEU454      0.1596
    167  C         -0.4520   12.6400  -45.5980 C.2   454  LEU454      0.2287
    168  O         -1.3550   13.4630  -45.4420 O.2   454  LEU454     -0.2864
    169  CB        -1.9030   10.5750  -45.6060 C.3   454  LEU454      0.0297
    170  CG        -2.3830    9.3190  -46.3500 C.3   454  LEU454      0.0022
    171  CD1       -3.6120    8.7450  -45.6720 C.3   454  LEU454      0.0001
    172  CD2       -2.7050    9.6720  -47.7960 C.3   454  LEU454      0.0001
@<TRIPOS>BOND
     1    62    60    1
     2    56    57    1
     3    57    60    1
     4    57    58    1
     5    60    61    1
     6    58    59    2
     7    58    64   am
     8    61    63    1
     9    48    47    2
    10    64    65    1
    11   118   116   ar
    12   118   120   ar
    13   121   120    1
    14   116   115   ar
    15    67    66    2
    16   120   119   ar
    17   115   114    1
    18   115   117   ar
    19   162   161    2
    20    47    46    1
    21   119   117   ar
    22   114   111    1
    23   163   164    1
    24   163   160    1
    25    46    45    1
    26    46    49    1
    27    66    65    1
    28    51    53   ar
    29    51    50   ar
    30   172   170    1
    31    65    68    1
    32    53    55   ar
    33   161   160    1
    34   161   165   am
    35   160   159    1
    36    49    50    1
    37    50    52   ar
    38   111   112    1
    39   111   110    1
    40    55    54   ar
    41   113   112    2
    42    68    69    1
    43    71    69   ar
    44    71    73   ar
    45   170   171    1
    46   170   169    1
    47   112   122   am
    48   166   165    1
    49   166   169    1
    50   166   167    1
    51    69    70   ar
    52    52    54   ar
    53   159   147   am
    54    73    72   ar
    55   122   123    1
    56   167   168    2
    57   126   123    1
    58   126   127    1
    59   123   124    1
    60   148   147    2
    61   147   146    1
    62    70    72   ar
    63    41    40    2
    64   128   127   ar
    65   128   130   ar
    66   127   129   ar
    67    37    36   ar
    68    37    35   ar
    69   124   125    2
    70    31    30    2
    71    36    34   ar
    72   146   149    1
    73   146   145    1
    74   149   150    1
    75   130   131   ar
    76    40    39    1
    77    89    88    1
    78    35    33   ar
    79   129   131   ar
    80   129   132   ar
    81    88    87    1
    82    39    38    1
    83    39    42    1
    84    44    42    1
    85    34    33   ar
    86    30    38   am
    87    30    29    1
    88   131   133   ar
    89   132   134   ar
    90    33    32    1
    91   150   152   ar
    92   150   151   ar
    93    42    43    1
    94   155   152   ar
    95   155   157   ar
    96    29    32    1
    97    29    28    1
    98   152   154   ar
    99   133   135   ar
   100    13    11   ar
   101    13    14   ar
   102    87    86    1
   103   151   153   ar
   104   134   135   ar
   105    11     8   ar
   106     4     3    2
   107   157   158   ar
   108    14    12   ar
   109    86    83    1
   110     8     6   ar
   111     8    10   ar
   112    81    79   ar
   113     5     6    1
   114     5     2    1
   115    12    10   ar
   116   154   153   ar
   117   154   156   ar
   118     6     7   ar
   119    10     9   ar
   120     3     2    1
   121     2     1    1
   122    26    25    2
   123   158   156   ar
   124    79    80   ar
   125    79    78    1
   126     7     9   ar
   127    83    84    1
   128    83    82    1
   129    85    84    2
   130    25    24    1
   131    78    75    1
   132    77    76    2
   133    27    24    1
   134   102   103    1
   135   102    99    1
   136    76    75    1
   137   100   101    2
   138   100    99    1
   139    24    23    1
   140   103   104   ar
   141   103   105   ar
   142   104   106   ar
   143    18    17    2
   144    75    74    1
   145    99    98    1
   146   105   107   ar
   147   106   108   ar
   148    23    17   am
   149   107   108   ar
   150   108   109    1
   151    17    16    1
   152    93    92    2
   153    22    20   am
   154   143   142   ar
   155    16    15    1
   156    16    19    1
   157    94    95    1
   158    94    91    1
   159    19    20    1
   160    92    91    1
   161    20    21    2
   162    97    95   am
   163   142   144   ar
   164   142   141    1
   165    95    96    2
   166    91    90    1
   167   140   141    1
   168   140   137    1
   169   139   138    2
   170   138   137    1
   171   137   136    1
