@<TRIPOS>MOLECULE
tmp/3aiwA00.pdb
 135 134 0 0 0
SMALL
GASTEIGER

@<TRIPOS>ATOM
      1  N        -58.7930   10.1220   -2.8220 N.3   133  TRP133     -0.1241
      2  CA       -57.2930   10.1450   -2.9580 C.3   133  TRP133      0.1605
      3  C        -56.8520   11.2780   -3.9070 C.2   133  TRP133      0.2264
      4  O        -55.7250   11.6020   -4.1010 O.2   133  TRP133     -0.2867
      5  CB       -56.7500    8.8140   -3.4540 C.3   133  TRP133      0.0550
      6  CG       -57.0130    7.7060   -2.5650 C.ar  133  TRP133      0.0003
      7  CD1      -57.7780    7.7280   -1.3650 C.ar  133  TRP133      0.0946
      8  CD2      -56.5810    6.3730   -2.7590 C.ar  133  TRP133      0.0152
      9  NE1      -57.8060    6.4510   -0.8180 N.ar  133  TRP133     -0.2442
     10  CE2      -57.0740    5.6050   -1.6510 C.ar  133  TRP133      0.0810
     11  CE3      -55.8680    5.7240   -3.7760 C.ar  133  TRP133      0.0012
     12  CZ2      -56.8700    4.2200   -1.5730 C.ar  133  TRP133      0.0191
     13  CZ3      -55.6150    4.3420   -3.6880 C.ar  133  TRP133      0.0001
     14  CH2      -56.1050    3.6040   -2.5710 C.ar  133  TRP133      0.0015
     15  N        -60.9330    4.8290    2.2980 N.3   178  GLU178     -0.1245
     16  CA       -59.6400    4.2080    2.6450 C.3   178  GLU178      0.1567
     17  C        -58.5240    5.0950    3.1900 C.2   178  GLU178      0.2260
     18  O        -57.4860    5.1840    2.5670 O.2   178  GLU178     -0.2867
     19  CB       -59.0880    3.3640    1.4870 C.3   178  GLU178      0.0388
     20  CG       -60.0640    2.2910    1.0390 C.3   178  GLU178      0.1160
     21  CD       -59.4710    1.2290    0.2220 C.2   178  GLU178      0.3649
     22  OE1      -58.3830    1.4380   -0.3750 O.co2 178  GLU178     -0.2457
     23  OE2      -60.0330    0.1180    0.1570 O.co2 178  GLU178     -0.2457
     24  N        -56.5710    4.6580    5.7460 N.3   180  HIS180     -0.1226
     25  CA       -55.4070    3.8830    6.1330 C.3   180  HIS180      0.1752
     26  C        -54.5780    3.5230    4.8820 C.2   180  HIS180      0.2596
     27  O        -53.3650    3.6850    4.9040 O.2   180  HIS180     -0.2718
     28  CB       -55.8020    2.6280    6.9700 C.3   180  HIS180      0.0759
     29  CG       -54.7220    1.5750    7.0410 C.ar  180  HIS180      0.0818
     30  ND1      -54.5680    0.5790    6.0630 N.ar  180  HIS180     -0.2268
     31  CD2      -53.7860    1.3110    8.0020 C.ar  180  HIS180      0.1154
     32  CE1      -53.5330   -0.1970    6.3970 C.ar  180  HIS180      0.1986
     33  NE2      -53.0630    0.2020    7.5850 N.ar  180  HIS180     -0.2212
     34  N        -55.1920    3.0240    3.8140 N.am  181  THR181     -0.1953
     35  CA       -54.3930    2.7170    2.5890 C.3   181  THR181      0.1897
     36  C        -53.6790    3.9930    2.0450 C.2   181  THR181      0.2313
     37  O        -52.4920    3.9670    1.7810 O.2   181  THR181     -0.2863
     38  CB       -55.3060    2.1790    1.4910 C.3   181  THR181      0.1794
     39  OG1      -55.9020    0.9520    1.9690 O.3   181  THR181     -0.2208
     40  CG2      -54.4750    1.8670    0.1830 C.3   181  THR181      0.0378
     41  N        -49.6630    4.3590    1.8320 N.3   185  PHE185     -0.1241
     42  CA       -49.0800    4.2650    0.4530 C.3   185  PHE185      0.1605
     43  C        -48.6140    5.6340   -0.0490 C.2   185  PHE185      0.2264
     44  O        -47.6480    5.6760   -0.7830 O.2   185  PHE185     -0.2867
     45  CB       -50.1370    3.6730   -0.4750 C.3   185  PHE185      0.0534
     46  CG       -50.2190    2.1290   -0.3460 C.ar  185  PHE185     -0.0203
     47  CD1      -49.3210    1.4460    0.4570 C.ar  185  PHE185     -0.0042
     48  CD2      -51.2190    1.4120   -1.0290 C.ar  185  PHE185     -0.0042
     49  CE1      -49.3400    0.0580    0.5890 C.ar  185  PHE185     -0.0003
     50  CE2      -51.2760    0.0150   -0.9430 C.ar  185  PHE185     -0.0003
     51  CZ       -50.3190   -0.6890   -0.1410 C.ar  185  PHE185     -0.0000
     52  N        -47.9430    5.8390   -3.8320 N.3   192  HIS192     -0.1241
     53  CA       -49.1250    6.5340   -4.3170 C.3   192  HIS192      0.1621
     54  C        -48.9550    8.0180   -4.1770 C.2   192  HIS192      0.2264
     55  O        -48.2160    8.5040   -3.3040 O.2   192  HIS192     -0.2867
     56  CB       -50.4080    6.1210   -3.5060 C.3   192  HIS192      0.0745
     57  CG       -50.9760    4.8030   -3.8970 C.ar  192  HIS192      0.0817
     58  ND1      -52.2220    4.3810   -3.4740 N.ar  192  HIS192     -0.2268
     59  CD2      -50.4910    3.8200   -4.6870 C.ar  192  HIS192      0.1154
     60  CE1      -52.4610    3.1750   -3.9440 C.ar  192  HIS192      0.1986
     61  NE2      -51.4450    2.8200   -4.7040 N.ar  192  HIS192     -0.2212
     62  N        -60.7100    0.8350    4.5980 N.3   249  ASP249     -0.1239
     63  CA       -60.1010   -0.3940    4.2170 C.3   249  ASP249      0.1674
     64  C        -59.8270   -1.2580    5.4270 C.2   249  ASP249      0.2266
     65  O        -59.2390   -0.7710    6.3600 O.2   249  ASP249     -0.2867
     66  CB       -58.8020   -0.1980    3.4230 C.3   249  ASP249      0.1410
     67  CG       -57.7370    0.5330    4.1990 C.2   249  ASP249      0.3668
     68  OD1      -57.8660    1.7830    4.3880 O.co2 249  ASP249     -0.2456
     69  OD2      -56.6840   -0.1210    4.5020 O.co2 249  ASP249     -0.2456
     70  N        -58.3930   -5.3970    6.5010 N.3   251  MET251     -0.1245
     71  CA       -58.0300   -6.7620    6.3320 C.3   251  MET251      0.1570
     72  C        -58.4550   -7.5300    7.5130 C.2   251  MET251      0.2261
     73  O        -58.3570   -7.0000    8.6430 O.2   251  MET251     -0.2867
     74  CB       -56.4870   -6.9880    6.1300 C.3   251  MET251      0.0387
     75  CG       -56.0360   -6.7100    4.7410 C.3   251  MET251      0.0595
     76  SD       -54.3780   -7.1700    4.4280 S.3   251  MET251     -0.1393
     77  CE       -54.1150   -6.3090    2.8520 C.3   251  MET251      0.0692
     78  N        -60.9970   -7.1640    1.0340 N.3   321  TYR321     -0.1241
     79  CA       -60.5140   -7.9930   -0.0420 C.3   321  TYR321      0.1605
     80  C        -59.9710   -9.3160    0.4540 C.2   321  TYR321      0.2264
     81  O        -60.1600  -10.3780   -0.1750 O.2   321  TYR321     -0.2867
     82  CB       -59.4080   -7.2550   -0.8450 C.3   321  TYR321      0.0534
     83  CG       -60.0050   -6.1310   -1.6200 C.ar  321  TYR321     -0.0201
     84  CD1      -59.9320   -4.8180   -1.1080 C.ar  321  TYR321     -0.0009
     85  CD2      -60.6860   -6.3730   -2.8630 C.ar  321  TYR321     -0.0009
     86  CE1      -60.5310   -3.7270   -1.8530 C.ar  321  TYR321      0.0417
     87  CE2      -61.2150   -5.3280   -3.5780 C.ar  321  TYR321      0.0417
     88  CZ       -61.1700   -4.0350   -3.0640 C.ar  321  TYR321      0.1957
     89  OH       -61.7540   -3.0420   -3.7890 O.3   321  TYR321     -0.2866
     90  N        -51.7040   -9.7420   -4.0020 N.3   366  TRP366     -0.1241
     91  CA       -52.0540   -9.4300   -2.6260 C.3   366  TRP366      0.1605
     92  C        -53.4990   -9.8800   -2.2030 C.2   366  TRP366      0.2264
     93  O        -53.7760   -9.8940   -1.0190 O.2   366  TRP366     -0.2867
     94  CB       -51.8360   -7.9410   -2.3070 C.3   366  TRP366      0.0550
     95  CG       -52.7430   -7.0570   -3.0930 C.ar  366  TRP366      0.0003
     96  CD1      -52.5110   -6.5920   -4.3930 C.ar  366  TRP366      0.0946
     97  CD2      -53.9840   -6.4230   -2.6600 C.ar  366  TRP366      0.0152
     98  NE1      -53.5290   -5.7570   -4.7730 N.ar  366  TRP366     -0.2442
     99  CE2      -54.4600   -5.6640   -3.7580 C.ar  366  TRP366      0.0810
    100  CE3      -54.7640   -6.5140   -1.5120 C.ar  366  TRP366      0.0012
    101  CZ2      -55.6490   -4.8970   -3.6980 C.ar  366  TRP366      0.0191
    102  CZ3      -55.9830   -5.8230   -1.4440 C.ar  366  TRP366      0.0001
    103  CH2      -56.4210   -5.0010   -2.5350 C.ar  366  TRP366      0.0015
    104  N        -66.6200   -1.9610   -0.8760 N.3   394  GLU394     -0.1245
    105  CA       -65.6900   -2.5410   -1.8790 C.3   394  GLU394      0.1567
    106  C        -65.4780   -3.9730   -1.5470 C.2   394  GLU394      0.2260
    107  O        -65.2760   -4.3220   -0.3710 O.2   394  GLU394     -0.2867
    108  CB       -64.2920   -1.8520   -1.8500 C.3   394  GLU394      0.0388
    109  CG       -64.2680   -0.4680   -2.5260 C.3   394  GLU394      0.1160
    110  CD       -62.9300    0.1640   -2.3400 C.2   394  GLU394      0.3649
    111  OE1      -61.8980   -0.2980   -2.9530 O.co2 394  GLU394     -0.2457
    112  OE2      -62.8640    1.1260   -1.5770 O.co2 394  GLU394     -0.2457
    113  N        -56.1080    0.9460  -11.8920 N.3   449  GLU449     -0.1231
    114  CA       -55.7910    0.4640  -10.5730 C.3   449  GLU449      0.1699
    115  C        -54.4620    1.0970  -10.0790 C.2   449  GLU449      0.2592
    116  O        -53.4640    0.3990   -9.8200 O.2   449  GLU449     -0.2718
    117  CB       -55.7930   -1.0780  -10.5990 C.3   449  GLU449      0.0402
    118  CG       -55.3080   -1.7320   -9.2790 C.3   449  GLU449      0.1161
    119  CD       -56.3230   -1.5160   -8.1060 C.2   449  GLU449      0.3649
    120  OE1      -57.4900   -0.9690   -8.3660 O.co2 449  GLU449     -0.2457
    121  OE2      -55.9260   -1.8500   -6.9330 O.co2 449  GLU449     -0.2457
    122  N        -54.4650    2.4220   -9.9180 N.am  450  TRP450     -0.1976
    123  CA       -53.3150    3.1460   -9.2800 C.3   450  TRP450      0.1640
    124  C        -51.9650    2.6760   -9.7870 C.2   450  TRP450      0.2290
    125  O        -51.7320    2.6490  -11.0280 O.2   450  TRP450     -0.2864
    126  CB       -53.4120    3.0190   -7.7160 C.3   450  TRP450      0.0576
    127  CG       -54.8130    3.4050   -7.2480 C.ar  450  TRP450      0.0006
    128  CD1      -55.7030    2.5510   -6.6250 C.ar  450  TRP450      0.0946
    129  CD2      -55.5150    4.6750   -7.4190 C.ar  450  TRP450      0.0152
    130  NE1      -56.9130    3.2320   -6.3970 N.ar  450  TRP450     -0.2442
    131  CE2      -56.8180    4.5140   -6.8390 C.ar  450  TRP450      0.0810
    132  CE3      -55.1640    5.9190   -7.9620 C.ar  450  TRP450      0.0012
    133  CZ2      -57.7210    5.5630   -6.6990 C.ar  450  TRP450      0.0191
    134  CZ3      -56.0950    6.9640   -7.9060 C.ar  450  TRP450      0.0001
    135  CH2      -57.3890    6.7700   -7.2780 C.ar  450  TRP450      0.0015
@<TRIPOS>BOND
     1   113   114    1
     2   125   124    2
     3   117   114    1
     4   117   118    1
     5   114   115    1
     6   115   122   am
     7   115   116    2
     8   122   123    1
     9   124   123    1
    10   123   126    1
    11   118   119    1
    12   120   119   ar
    13   119   121   ar
    14   132   134   ar
    15   132   129   ar
    16   134   135   ar
    17   126   127    1
    18   129   127   ar
    19   129   131   ar
    20   135   133   ar
    21   127   128   ar
    22   131   133   ar
    23   131   130   ar
    24   128   130   ar
    25    98    96   ar
    26    98    99   ar
    27    61    59   ar
    28    61    60   ar
    29    59    57   ar
    30    96    95   ar
    31    53    54    1
    32    53    52    1
    33    53    56    1
    34    54    55    2
    35     4     3    2
    36    90    91    1
    37    60    58   ar
    38     3     2    1
    39    57    56    1
    40    57    58   ar
    41    89    88    1
    42    11    13   ar
    43    11     8   ar
    44    99   101   ar
    45    99    97   ar
    46   101   103   ar
    47    13    14   ar
    48    87    88   ar
    49    87    85   ar
    50     5     2    1
    51     5     6    1
    52    95    97   ar
    53    95    94    1
    54    88    86   ar
    55     2     1    1
    56   111   110   ar
    57    85    83   ar
    58     8     6   ar
    59     8    10   ar
    60    97   100   ar
    61    91    94    1
    62    91    92    1
    63    14    12   ar
    64     6     7   ar
    65   103   102   ar
    66   109   110    1
    67   109   108    1
    68   110   112   ar
    69    92    93    2
    70   105   108    1
    71   105   106    1
    72   105   104    1
    73    86    84   ar
    74    10    12   ar
    75    10     9   ar
    76    83    84   ar
    77    83    82    1
    78   106   107    2
    79   100   102   ar
    80     7     9   ar
    81    48    50   ar
    82    48    46   ar
    83    50    51   ar
    84    82    79    1
    85    44    43    2
    86    45    46    1
    87    45    42    1
    88    22    21   ar
    89    46    47   ar
    90    81    80    2
    91    51    49   ar
    92    43    42    1
    93    79    80    1
    94    79    78    1
    95    23    21   ar
    96    40    38    1
    97    21    20    1
    98    42    41    1
    99    47    49   ar
   100    20    19    1
   101    19    16    1
   102    38    39    1
   103    38    35    1
   104    37    36    2
   105    36    35    1
   106    15    16    1
   107    18    17    2
   108    35    34    1
   109    16    17    1
   110    77    76    1
   111    66    67    1
   112    66    63    1
   113    34    26   am
   114    67    68   ar
   115    67    69   ar
   116    63    62    1
   117    63    64    1
   118    76    75    1
   119    75    74    1
   120    26    27    2
   121    26    25    1
   122    64    65    2
   123    24    25    1
   124    30    32   ar
   125    30    29   ar
   126    74    71    1
   127    25    28    1
   128    71    70    1
   129    71    72    1
   130    32    33   ar
   131    28    29    1
   132    29    31   ar
   133    72    73    2
   134    33    31   ar
