@<TRIPOS>MOLECULE
tmp/3aiwA01.pdb
 133 135 0 0 0
SMALL
GASTEIGER

@<TRIPOS>ATOM
      1  N        -60.3280    6.9360  -11.2860 N.3    30  GLN30      -0.1245
      2  CA       -60.0570    5.6340  -11.8560 C.3    30  GLN30       0.1566
      3  C        -60.8250    5.3620  -13.2010 C.2    30  GLN30       0.2260
      4  O        -60.4490    4.4720  -13.9350 O.2    30  GLN30      -0.2867
      5  CB       -60.3060    4.5320  -10.7810 C.3    30  GLN30       0.0367
      6  CG       -59.2230    4.5920   -9.7300 C.3    30  GLN30       0.0905
      7  CD       -59.4630    3.5540   -8.6340 C.2    30  GLN30       0.2608
      8  OE1      -60.2530    3.8200   -7.7400 O.2    30  GLN30      -0.2717
      9  NE2      -58.7880    2.3890   -8.7090 N.am   30  GLN30      -0.0878
     10  N        -61.6550   10.6790   -2.8090 N.3   132  HIS132     -0.1226
     11  CA       -61.1410    9.3580   -3.0710 C.3   132  HIS132      0.1752
     12  C        -59.6950    9.5280   -3.6550 C.2   132  HIS132      0.2596
     13  O        -59.4610    9.1200   -4.8370 O.2   132  HIS132     -0.2718
     14  CB       -62.1090    8.5930   -4.0320 C.3   132  HIS132      0.0759
     15  CG       -61.9490    7.0820   -4.0520 C.ar  132  HIS132      0.0818
     16  ND1      -60.7260    6.4310   -4.2190 N.ar  132  HIS132     -0.2268
     17  CD2      -62.8780    6.1040   -3.9250 C.ar  132  HIS132      0.1154
     18  CE1      -60.9180    5.1170   -4.2090 C.ar  132  HIS132      0.1986
     19  NE2      -62.2100    4.9060   -3.9970 N.ar  132  HIS132     -0.2212
     20  N        -58.7930   10.1220   -2.8220 N.am  133  TRP133     -0.1976
     21  CA       -57.2930   10.1450   -2.9580 C.3   133  TRP133      0.1640
     22  C        -56.8520   11.2780   -3.9070 C.2   133  TRP133      0.2290
     23  O        -55.7250   11.6020   -4.1010 O.2   133  TRP133     -0.2864
     24  CB       -56.7500    8.8140   -3.4540 C.3   133  TRP133      0.0576
     25  CG       -57.0130    7.7060   -2.5650 C.ar  133  TRP133      0.0006
     26  CD1      -57.7780    7.7280   -1.3650 C.ar  133  TRP133      0.0946
     27  CD2      -56.5810    6.3730   -2.7590 C.ar  133  TRP133      0.0152
     28  NE1      -57.8060    6.4510   -0.8180 N.ar  133  TRP133     -0.2442
     29  CE2      -57.0740    5.6050   -1.6510 C.ar  133  TRP133      0.0810
     30  CE3      -55.8680    5.7240   -3.7760 C.ar  133  TRP133      0.0012
     31  CZ2      -56.8700    4.2200   -1.5730 C.ar  133  TRP133      0.0191
     32  CZ3      -55.6150    4.3420   -3.6880 C.ar  133  TRP133      0.0001
     33  CH2      -56.1050    3.6040   -2.5710 C.ar  133  TRP133      0.0015
     34  N        -62.6070    7.7910    1.5340 N.3   177  ASN177     -0.1225
     35  CA       -62.4560    6.3500    1.2370 C.3   177  ASN177      0.1785
     36  C        -61.0480    5.8910    1.5120 C.2   177  ASN177      0.2597
     37  O        -60.1030    6.5140    1.0750 O.2   177  ASN177     -0.2718
     38  CB       -62.8170    6.0510   -0.2650 C.3   177  ASN177      0.1169
     39  CG       -62.8810    4.5840   -0.5450 C.2   177  ASN177      0.2627
     40  OD1      -63.8540    3.9400   -0.2210 O.2   177  ASN177     -0.2716
     41  ND2      -61.8120    4.0380   -1.0730 N.am  177  ASN177     -0.0877
     42  N        -60.9330    4.8290    2.2980 N.am  178  GLU178     -0.1979
     43  CA       -59.6400    4.2080    2.6450 C.3   178  GLU178      0.1602
     44  C        -58.5240    5.0950    3.1900 C.2   178  GLU178      0.2287
     45  O        -57.4860    5.1840    2.5670 O.2   178  GLU178     -0.2864
     46  CB       -59.0880    3.3640    1.4870 C.3   178  GLU178      0.0415
     47  CG       -60.0640    2.2910    1.0390 C.3   178  GLU178      0.1163
     48  CD       -59.4710    1.2290    0.2220 C.2   178  GLU178      0.3649
     49  OE1      -58.3830    1.4380   -0.3750 O.co2 178  GLU178     -0.2457
     50  OE2      -60.0330    0.1180    0.1570 O.co2 178  GLU178     -0.2457
     51  N        -60.9970   -7.1640    1.0340 N.3   321  TYR321     -0.1241
     52  CA       -60.5140   -7.9930   -0.0420 C.3   321  TYR321      0.1605
     53  C        -59.9710   -9.3160    0.4540 C.2   321  TYR321      0.2264
     54  O        -60.1600  -10.3780   -0.1750 O.2   321  TYR321     -0.2867
     55  CB       -59.4080   -7.2550   -0.8450 C.3   321  TYR321      0.0534
     56  CG       -60.0050   -6.1310   -1.6200 C.ar  321  TYR321     -0.0201
     57  CD1      -59.9320   -4.8180   -1.1080 C.ar  321  TYR321     -0.0009
     58  CD2      -60.6860   -6.3730   -2.8630 C.ar  321  TYR321     -0.0009
     59  CE1      -60.5310   -3.7270   -1.8530 C.ar  321  TYR321      0.0417
     60  CE2      -61.2150   -5.3280   -3.5780 C.ar  321  TYR321      0.0417
     61  CZ       -61.1700   -4.0350   -3.0640 C.ar  321  TYR321      0.1957
     62  OH       -61.7540   -3.0420   -3.7890 O.3   321  TYR321     -0.2866
     63  N        -51.7040   -9.7420   -4.0020 N.3   366  TRP366     -0.1241
     64  CA       -52.0540   -9.4300   -2.6260 C.3   366  TRP366      0.1605
     65  C        -53.4990   -9.8800   -2.2030 C.2   366  TRP366      0.2264
     66  O        -53.7760   -9.8940   -1.0190 O.2   366  TRP366     -0.2867
     67  CB       -51.8360   -7.9410   -2.3070 C.3   366  TRP366      0.0550
     68  CG       -52.7430   -7.0570   -3.0930 C.ar  366  TRP366      0.0003
     69  CD1      -52.5110   -6.5920   -4.3930 C.ar  366  TRP366      0.0946
     70  CD2      -53.9840   -6.4230   -2.6600 C.ar  366  TRP366      0.0152
     71  NE1      -53.5290   -5.7570   -4.7730 N.ar  366  TRP366     -0.2442
     72  CE2      -54.4600   -5.6640   -3.7580 C.ar  366  TRP366      0.0810
     73  CE3      -54.7640   -6.5140   -1.5120 C.ar  366  TRP366      0.0012
     74  CZ2      -55.6490   -4.8970   -3.6980 C.ar  366  TRP366      0.0191
     75  CZ3      -55.9830   -5.8230   -1.4440 C.ar  366  TRP366      0.0001
     76  CH2      -56.4210   -5.0010   -2.5350 C.ar  366  TRP366      0.0015
     77  N        -66.6200   -1.9610   -0.8760 N.3   394  GLU394     -0.1245
     78  CA       -65.6900   -2.5410   -1.8790 C.3   394  GLU394      0.1567
     79  C        -65.4780   -3.9730   -1.5470 C.2   394  GLU394      0.2260
     80  O        -65.2760   -4.3220   -0.3710 O.2   394  GLU394     -0.2867
     81  CB       -64.2920   -1.8520   -1.8500 C.3   394  GLU394      0.0388
     82  CG       -64.2680   -0.4680   -2.5260 C.3   394  GLU394      0.1160
     83  CD       -62.9300    0.1640   -2.3400 C.2   394  GLU394      0.3649
     84  OE1      -61.8980   -0.2980   -2.9530 O.co2 394  GLU394     -0.2457
     85  OE2      -62.8640    1.1260   -1.5770 O.co2 394  GLU394     -0.2457
     86  N        -66.3980   -4.0340   -5.7910 N.3   442  TRP442     -0.1241
     87  CA       -65.3890   -3.2360   -6.5280 C.3   442  TRP442      0.1605
     88  C        -64.8880   -4.1280   -7.6950 C.2   442  TRP442      0.2264
     89  O        -64.3880   -5.1980   -7.4440 O.2   442  TRP442     -0.2867
     90  CB       -64.2450   -2.7230   -5.6600 C.3   442  TRP442      0.0550
     91  CG       -63.2770   -1.9130   -6.5420 C.ar  442  TRP442      0.0003
     92  CD1      -62.2480   -2.3930   -7.3190 C.ar  442  TRP442      0.0946
     93  CD2      -63.3070   -0.5050   -6.7150 C.ar  442  TRP442      0.0152
     94  NE1      -61.6770   -1.3460   -7.9890 N.ar  442  TRP442     -0.2442
     95  CE2      -62.2760   -0.1730   -7.6230 C.ar  442  TRP442      0.0810
     96  CE3      -64.0860    0.5270   -6.1390 C.ar  442  TRP442      0.0012
     97  CZ2      -62.0280    1.1460   -8.0440 C.ar  442  TRP442      0.0191
     98  CZ3      -63.8400    1.8080   -6.5370 C.ar  442  TRP442      0.0001
     99  CH2      -62.8380    2.1290   -7.5210 C.ar  442  TRP442      0.0015
    100  N        -56.1080    0.9460  -11.8920 N.3   449  GLU449     -0.1231
    101  CA       -55.7910    0.4640  -10.5730 C.3   449  GLU449      0.1699
    102  C        -54.4620    1.0970  -10.0790 C.2   449  GLU449      0.2592
    103  O        -53.4640    0.3990   -9.8200 O.2   449  GLU449     -0.2718
    104  CB       -55.7930   -1.0780  -10.5990 C.3   449  GLU449      0.0402
    105  CG       -55.3080   -1.7320   -9.2790 C.3   449  GLU449      0.1161
    106  CD       -56.3230   -1.5160   -8.1060 C.2   449  GLU449      0.3649
    107  OE1      -57.4900   -0.9690   -8.3660 O.co2 449  GLU449     -0.2457
    108  OE2      -55.9260   -1.8500   -6.9330 O.co2 449  GLU449     -0.2457
    109  N        -54.4650    2.4220   -9.9180 N.am  450  TRP450     -0.1976
    110  CA       -53.3150    3.1460   -9.2800 C.3   450  TRP450      0.1640
    111  C        -51.9650    2.6760   -9.7870 C.2   450  TRP450      0.2290
    112  O        -51.7320    2.6490  -11.0280 O.2   450  TRP450     -0.2864
    113  CB       -53.4120    3.0190   -7.7160 C.3   450  TRP450      0.0576
    114  CG       -54.8130    3.4050   -7.2480 C.ar  450  TRP450      0.0006
    115  CD1      -55.7030    2.5510   -6.6250 C.ar  450  TRP450      0.0946
    116  CD2      -55.5150    4.6750   -7.4190 C.ar  450  TRP450      0.0152
    117  NE1      -56.9130    3.2320   -6.3970 N.ar  450  TRP450     -0.2442
    118  CE2      -56.8180    4.5140   -6.8390 C.ar  450  TRP450      0.0810
    119  CE3      -55.1640    5.9190   -7.9620 C.ar  450  TRP450      0.0012
    120  CZ2      -57.7210    5.5630   -6.6990 C.ar  450  TRP450      0.0191
    121  CZ3      -56.0950    6.9640   -7.9060 C.ar  450  TRP450      0.0001
    122  CH2      -57.3890    6.7700   -7.2780 C.ar  450  TRP450      0.0015
    123  N        -60.5430   -5.1120  -12.3020 N.3   458  PHE458     -0.1241
    124  CA       -61.4160   -5.3900  -11.1700 C.3   458  PHE458      0.1605
    125  C        -62.9180   -5.3690  -11.5500 C.2   458  PHE458      0.2264
    126  O        -63.7620   -5.6390  -10.6680 O.2   458  PHE458     -0.2867
    127  CB       -61.2100   -4.3770   -9.9970 C.3   458  PHE458      0.0534
    128  CG       -60.0910   -4.7430   -9.0460 C.ar  458  PHE458     -0.0203
    129  CD1      -60.3580   -5.4120   -7.8260 C.ar  458  PHE458     -0.0042
    130  CD2      -58.7950   -4.3910   -9.3220 C.ar  458  PHE458     -0.0042
    131  CE1      -59.3420   -5.6890   -6.9320 C.ar  458  PHE458     -0.0003
    132  CE2      -57.7910   -4.6900   -8.4410 C.ar  458  PHE458     -0.0003
    133  CZ       -58.0860   -5.3530   -7.2300 C.ar  458  PHE458     -0.0000
@<TRIPOS>BOND
     1     4     3    2
     2     3     2    1
     3   123   124    1
     4   100   101    1
     5     2     1    1
     6     2     5    1
     7   125   124    1
     8   125   126    2
     9   124   127    1
    10   112   111    2
    11     5     6    1
    12   104   101    1
    13   104   105    1
    14   101   102    1
    15   102   109   am
    16   102   103    2
    17   127   128    1
    18   109   110    1
    19   111   110    1
    20     6     7    1
    21   130   128   ar
    22   130   132   ar
    23   110   113    1
    24   105   106    1
    25   128   129   ar
    26     9     7   am
    27     7     8    2
    28   132   133   ar
    29   107   106   ar
    30   106   108   ar
    31    97    95   ar
    32    97    99   ar
    33    94    95   ar
    34    94    92   ar
    35   119   121   ar
    36   119   116   ar
    37   121   122   ar
    38   129   131   ar
    39   113   114    1
    40    88    89    2
    41    88    87    1
    42    95    93   ar
    43    99    98   ar
    44   116   114   ar
    45   116   118   ar
    46    92    91   ar
    47   122   120   ar
    48   114   115   ar
    49   133   131   ar
    50   118   120   ar
    51   118   117   ar
    52    93    91   ar
    53    93    96   ar
    54   115   117   ar
    55    91    90    1
    56    98    96   ar
    57    87    86    1
    58    87    90    1
    59    13    12    2
    60    71    69   ar
    61    71    72   ar
    62    69    68   ar
    63    16    18   ar
    64    16    15   ar
    65    18    19   ar
    66    23    22    2
    67    15    14    1
    68    15    17   ar
    69    14    11    1
    70    63    64    1
    71    19    17   ar
    72    22    21    1
    73    62    61    1
    74    30    32   ar
    75    30    27   ar
    76    72    74   ar
    77    72    70   ar
    78    74    76   ar
    79    32    33   ar
    80    12    11    1
    81    12    20   am
    82    60    61   ar
    83    60    58   ar
    84    24    21    1
    85    24    25    1
    86    68    70   ar
    87    68    67    1
    88    11    10    1
    89    61    59   ar
    90    21    20    1
    91    84    83   ar
    92    58    56   ar
    93    27    25   ar
    94    27    29   ar
    95    70    73   ar
    96    64    67    1
    97    64    65    1
    98    33    31   ar
    99    25    26   ar
   100    76    75   ar
   101    82    83    1
   102    82    81    1
   103    83    85   ar
   104    65    66    2
   105    78    81    1
   106    78    79    1
   107    78    77    1
   108    59    57   ar
   109    29    31   ar
   110    29    28   ar
   111    56    57   ar
   112    56    55    1
   113    79    80    2
   114    73    75   ar
   115    26    28   ar
   116    41    39   am
   117    55    52    1
   118    39    38    1
   119    39    40    2
   120    49    48   ar
   121    38    35    1
   122    54    53    2
   123    52    53    1
   124    52    51    1
   125    50    48   ar
   126    48    47    1
   127    47    46    1
   128    37    36    2
   129    35    36    1
   130    35    34    1
   131    46    43    1
   132    36    42   am
   133    42    43    1
   134    45    44    2
   135    43    44    1
