@<TRIPOS>MOLECULE
tmp/3ajeA01.pdb
 181 169 0 0 0
SMALL
GASTEIGER

@<TRIPOS>ATOM
      1  N         36.5740   36.2110   13.5440 N.3    36  VAL36      -0.1245
      2  CA        35.6560   35.9800   14.6590 C.3    36  VAL36       0.1561
      3  C         35.0700   37.3330   15.0460 C.2    36  VAL36       0.2260
      4  O         35.5680   38.3750   14.6120 O.2    36  VAL36      -0.2867
      5  CB        36.3950   35.3940   15.9380 C.3    36  VAL36       0.0252
      6  CG1       36.9730   33.9860   15.6220 C.3    36  VAL36       0.0019
      7  CG2       37.4770   36.3210   16.3870 C.3    36  VAL36       0.0019
      8  N         39.1480   39.5300   31.3600 N.3    58  ARG58      -0.1245
      9  CA        40.4240   39.1060   30.7690 C.3    58  ARG58       0.1563
     10  C         41.5880   39.6500   31.5680 C.2    58  ARG58       0.2260
     11  O         41.5280   40.7730   32.0610 O.2    58  ARG58      -0.2867
     12  CB        40.4540   39.6340   29.3080 C.3    58  ARG58       0.0307
     13  CG        41.7160   39.4430   28.4250 C.3    58  ARG58       0.0489
     14  CD        41.6450   40.4340   27.2020 C.3    58  ARG58       0.2205
     15  NE        42.7630   40.3360   26.2410 N.pl3  58  ARG58      -0.0865
     16  CZ        42.8000   39.4570   25.2410 C.cat  58  ARG58       0.5346
     17  NH1       41.8030   38.5950   25.0720 N.pl3  58  ARG58       0.1354
     18  NH2       43.8110   39.4600   24.3730 N.pl3  58  ARG58       0.1354
     19  N         47.2110   40.7910   28.5930 N.3    62  ASN62      -0.1226
     20  CA        47.0910   40.0780   27.3040 C.3    62  ASN62       0.1770
     21  C         46.6190   41.1720   26.3370 C.2    62  ASN62       0.2439
     22  O         45.4290   41.5060   26.3150 O.2    62  ASN62      -0.2733
     23  CB        46.0530   38.9380   27.4650 C.3    62  ASN62       0.1168
     24  CG        45.9190   38.0650   26.2120 C.2    62  ASN62       0.2627
     25  OD1       46.6210   38.2810   25.2240 O.2    62  ASN62      -0.2716
     26  ND2       45.0210   37.0690   26.2580 N.am   62  ASN62      -0.0877
     27  N         47.5530   41.7420   25.5370 N.am   63  PRO63      -0.2718
     28  CA        47.3820   42.8140   24.5420 C.3    63  PRO63       0.1535
     29  C         46.2650   42.6230   23.5000 C.2    63  PRO63       0.2598
     30  O         45.8730   41.5040   23.2110 O.2    63  PRO63      -0.2715
     31  CB        48.7640   42.9210   23.9060 C.3    63  PRO63       0.0310
     32  CG        49.2350   41.5120   23.9420 C.3    63  PRO63       0.0237
     33  CD        48.8250   41.0310   25.3070 C.3    63  PRO63       0.0939
     34  N         45.7900   43.7390   22.9560 N.am   64  LEU64      -0.1964
     35  CA        44.6890   43.7650   21.9760 C.3    64  LEU64       0.1728
     36  C         45.0920   44.1330   20.5350 C.2    64  LEU64       0.2616
     37  O         45.8840   45.0540   20.3190 O.2    64  LEU64      -0.2715
     38  CB        43.6470   44.7940   22.4180 C.3    64  LEU64       0.0311
     39  CG        43.2240   44.8220   23.8890 C.3    64  LEU64       0.0022
     40  CD1       42.2240   45.9420   24.1170 C.3    64  LEU64       0.0001
     41  CD2       42.5950   43.4740   24.2550 C.3    64  LEU64       0.0001
     42  N         44.4970   43.4520   19.5580 N.am   65  ILE65      -0.1977
     43  CA        44.7780   43.7690   18.1510 C.3    65  ILE65       0.1596
     44  C         43.9850   45.0120   17.7470 C.2    65  ILE65       0.2287
     45  O         42.7910   45.0970   17.9950 O.2    65  ILE65      -0.2864
     46  CB        44.3840   42.5850   17.2390 C.3    65  ILE65       0.0276
     47  CG1       45.3970   41.4540   17.4230 C.3    65  ILE65       0.0022
     48  CG2       44.3250   43.0140   15.7790 C.3    65  ILE65       0.0022
     49  CD1       45.0010   40.1410   16.7560 C.3    65  ILE65       0.0001
     50  N         52.6860   42.5220   13.8230 N.3   100  VAL100     -0.1245
     51  CA        53.1450   43.1350   15.0760 C.3   100  VAL100      0.1561
     52  C         54.2270   44.1460   14.6180 C.2   100  VAL100      0.2260
     53  O         55.2060   43.7840   13.9450 O.2   100  VAL100     -0.2867
     54  CB        53.7780   42.1010   16.0390 C.3   100  VAL100      0.0252
     55  CG1       54.3150   42.8190   17.3190 C.3   100  VAL100      0.0019
     56  CG2       52.7580   41.0230   16.4080 C.3   100  VAL100      0.0019
     57  N         48.4190   47.8420   24.4390 N.3   112  THR112     -0.1218
     58  CA        49.6770   47.1080   24.2590 C.3   112  THR112      0.1862
     59  C         50.1840   46.2730   25.4400 C.2   112  THR112      0.2287
     60  O         51.1310   45.5010   25.2860 O.2   112  THR112     -0.2866
     61  CB        50.8060   48.0880   23.8870 C.3   112  THR112      0.1770
     62  OG1       51.0690   48.9610   24.9900 O.3   112  THR112     -0.2211
     63  CG2       50.4040   48.9440   22.7110 C.3   112  THR112      0.0375
     64  N         53.8420   46.7700   26.2200 N.3   115  LEU115     -0.1245
     65  CA        54.8350   46.3830   25.2240 C.3   115  LEU115      0.1561
     66  C         55.1840   47.5720   24.3510 C.2   115  LEU115      0.2260
     67  O         54.4460   48.5380   24.3040 O.2   115  LEU115     -0.2867
     68  CB        54.3010   45.2340   24.3570 C.3   115  LEU115      0.0270
     69  CG        53.8540   44.0280   25.1810 C.3   115  LEU115      0.0019
     70  CD1       53.0930   43.0050   24.3150 C.3   115  LEU115      0.0001
     71  CD2       55.1000   43.4010   25.8250 C.3   115  LEU115      0.0001
     72  N         55.4230   47.2650   21.2500 N.3   117  THR117     -0.1203
     73  CA        54.8650   46.9390   19.9310 C.3   117  THR117      0.1994
     74  C         53.3510   46.9560   19.9250 C.2   117  THR117      0.2618
     75  O         52.7350   46.9290   20.9750 O.2   117  THR117     -0.2717
     76  CB        55.3200   45.5490   19.4850 C.3   117  THR117      0.1784
     77  OG1       54.9780   44.5940   20.4890 O.3   117  THR117     -0.2211
     78  CG2       56.8230   45.5340   19.2560 C.3   117  THR117      0.0376
     79  N         52.7600   46.9800   18.7280 N.am  118  VAL118     -0.1965
     80  CA        51.3020   46.9880   18.6070 C.3   118  VAL118      0.1727
     81  C         50.9480   46.0320   17.4730 C.2   118  VAL118      0.2616
     82  O         51.6710   45.9580   16.4800 O.2   118  VAL118     -0.2715
     83  CB        50.7660   48.4310   18.3060 C.3   118  VAL118      0.0290
     84  CG1       51.2230   48.9120   16.9470 C.3   118  VAL118      0.0023
     85  CG2       49.2280   48.4600   18.3870 C.3   118  VAL118      0.0023
     86  N         49.8630   45.2730   17.6350 N.am  119  ALA119     -0.1977
     87  CA        49.4250   44.3030   16.6330 C.3   119  ALA119      0.1597
     88  C         48.2980   44.9980   15.8640 C.2   119  ALA119      0.2287
     89  O         47.3690   45.5230   16.4720 O.2   119  ALA119     -0.2864
     90  CB        48.9130   43.0160   17.3220 C.3   119  ALA119      0.0319
     91  N         40.3240   45.4100   19.4020 N.3   141  ALA141     -0.1231
     92  CA        39.2680   44.4510   19.5460 C.3   141  ALA141      0.1679
     93  C         39.6680   42.9800   19.5580 C.2   141  ALA141      0.2434
     94  O         39.9440   42.4050   18.5010 O.2   141  ALA141     -0.2733
     95  CB        38.2230   44.6570   18.4020 C.3   141  ALA141      0.0304
     96  N         39.7140   42.3640   20.7450 N.am  142  PRO142     -0.2718
     97  CA        40.0600   40.9410   20.8580 C.3   142  PRO142      0.1535
     98  C         38.7480   40.2140   20.5680 C.2   142  PRO142      0.2599
     99  O         37.7090   40.8630   20.3270 O.2   142  PRO142     -0.2715
    100  CB        40.4270   40.7960   22.3240 C.3   142  PRO142      0.0310
    101  CG        39.4000   41.7300   22.9730 C.3   142  PRO142      0.0237
    102  CD        39.4700   42.9550   22.0760 C.3   142  PRO142      0.0939
    103  N         38.7510   38.8820   20.6240 N.am  143  SER143     -0.1950
    104  CA        37.5030   38.1380   20.3800 C.3   143  SER143      0.1924
    105  C         36.4100   38.5260   21.3850 C.2   143  SER143      0.2314
    106  O         36.6790   38.8000   22.5650 O.2   143  SER143     -0.2863
    107  CB        37.7800   36.6190   20.4450 C.3   143  SER143      0.2116
    108  OG        38.3690   36.3360   21.6960 O.3   143  SER143     -0.2180
    109  N         36.0930   31.4270   20.9690 N.3   151  SER151     -0.1217
    110  CA        35.8580   32.6920   20.2580 C.3   151  SER151      0.1889
    111  C         34.5150   32.6150   19.5340 C.2   151  SER151      0.2288
    112  O         34.1840   31.5870   18.9400 O.2   151  SER151     -0.2866
    113  CB        36.9710   32.9430   19.2430 C.3   151  SER151      0.2089
    114  OG        38.1950   33.1700   19.9310 O.3   151  SER151     -0.2183
    115  N         40.6350   32.9300   14.3920 N.3   180  GLU180     -0.1245
    116  CA        41.3190   34.2060   14.5290 C.3   180  GLU180      0.1567
    117  C         42.4130   34.4450   13.4960 C.2   180  GLU180      0.2260
    118  O         43.0220   33.5080   12.9850 O.2   180  GLU180     -0.2867
    119  CB        41.8890   34.3160   15.9420 C.3   180  GLU180      0.0388
    120  CG        40.8470   34.0550   17.0300 C.3   180  GLU180      0.1160
    121  CD        40.8220   32.6080   17.5030 C.2   180  GLU180      0.3649
    122  OE1       41.2090   31.7110   16.7470 O.co2 180  GLU180     -0.2457
    123  OE2       40.4020   32.3740   18.6650 O.co2 180  GLU180     -0.2457
    124  N         48.8740   35.8520   12.9260 N.3   183  ILE183     -0.1245
    125  CA        49.6800   36.9350   13.4880 C.3   183  ILE183      0.1561
    126  C         51.1460   36.6810   13.1920 C.2   183  ILE183      0.2260
    127  O         51.6530   35.5910   13.4940 O.2   183  ILE183     -0.2867
    128  CB        49.6110   37.0500   15.0430 C.3   183  ILE183      0.0252
    129  CG1       48.1690   37.2760   15.5190 C.3   183  ILE183      0.0019
    130  CG2       50.4710   38.2390   15.4840 C.3   183  ILE183      0.0019
    131  CD1       48.0010   37.1890   17.0540 C.3   183  ILE183      0.0001
    132  N         55.1050   38.5020   13.5180 N.3   185  ASN185     -0.1240
    133  CA        55.8440   39.5810   14.1190 C.3   185  ASN185      0.1653
    134  C         56.9020   40.0100   13.1060 C.2   185  ASN185      0.2266
    135  O         57.7420   39.1930   12.7140 O.2   185  ASN185     -0.2867
    136  CB        56.5190   39.0890   15.4050 C.3   185  ASN185      0.1155
    137  CG        57.2080   40.1970   16.1490 C.2   185  ASN185      0.2627
    138  OD1       57.4090   41.3000   15.6230 O.2   185  ASN185     -0.2716
    139  ND2       57.5890   39.9110   17.3940 N.am  185  ASN185     -0.0877
    140  N         53.3180   34.0530   15.0610 N.3   194  LEU194     -0.1231
    141  CA        52.8990   33.9830   16.4570 C.3   194  LEU194      0.1693
    142  C         51.5900   33.2370   16.6140 C.2   194  LEU194      0.2591
    143  O         51.2880   32.7270   17.6970 O.2   194  LEU194     -0.2718
    144  CB        52.7720   35.3910   17.0640 C.3   194  LEU194      0.0284
    145  CG        54.0460   36.2360   17.0410 C.3   194  LEU194      0.0019
    146  CD1       53.8190   37.6080   17.6600 C.3   194  LEU194      0.0001
    147  CD2       55.1440   35.4650   17.7720 C.3   194  LEU194      0.0001
    148  N         50.7890   33.1990   15.5470 N.am  195  ARG195     -0.1980
    149  CA        49.5250   32.4860   15.6010 C.3   195  ARG195      0.1597
    150  C         49.0790   32.1390   14.1990 C.2   195  ARG195      0.2287
    151  O         48.9690   33.0170   13.3520 O.2   195  ARG195     -0.2864
    152  CB        48.4310   33.3270   16.2730 C.3   195  ARG195      0.0334
    153  CG        47.0800   32.6060   16.3740 C.3   195  ARG195      0.0492
    154  CD        45.9950   33.4360   17.1150 C.3   195  ARG195      0.2205
    155  NE        45.5760   34.6340   16.3850 N.pl3 195  ARG195     -0.0865
    156  CZ        44.9300   35.6600   16.9340 C.cat 195  ARG195      0.5346
    157  NH1       44.6240   35.6590   18.2310 N.pl3 195  ARG195      0.1354
    158  NH2       44.5900   36.6870   16.1850 N.pl3 195  ARG195      0.1354
    159  N         40.6430   29.3910   25.1880 N.3   216  TYR216     -0.1241
    160  CA        39.2850   29.2910   24.6980 C.3   216  TYR216      0.1605
    161  C         39.2020   27.8180   24.3040 C.2   216  TYR216      0.2264
    162  O         39.6850   27.4270   23.2510 O.2   216  TYR216     -0.2867
    163  CB        39.0580   30.1770   23.4650 C.3   216  TYR216      0.0534
    164  CG        39.2320   31.6670   23.7030 C.ar  216  TYR216     -0.0201
    165  CD1       39.5520   32.1760   24.9680 C.ar  216  TYR216     -0.0009
    166  CD2       39.0960   32.5600   22.6610 C.ar  216  TYR216     -0.0009
    167  CE1       39.7380   33.5650   25.1660 C.ar  216  TYR216      0.0417
    168  CE2       39.2680   33.9170   22.8370 C.ar  216  TYR216      0.0417
    169  CZ        39.5920   34.4250   24.0810 C.ar  216  TYR216      0.1957
    170  OH        39.7850   35.7820   24.2120 O.3   216  TYR216     -0.2866
    171  N         44.3410   25.2600   17.0100 N.3   309  ARG309     -0.1245
    172  CA        43.2910   25.5750   17.9820 C.3   309  ARG309      0.1563
    173  C         42.8060   24.3050   18.6810 C.2   309  ARG309      0.2260
    174  O         42.5050   24.3400   19.8720 O.2   309  ARG309     -0.2867
    175  CB        42.0990   26.2490   17.2890 C.3   309  ARG309      0.0307
    176  CG        42.4590   27.5540   16.5740 C.3   309  ARG309      0.0489
    177  CD        43.1640   28.5520   17.4800 C.3   309  ARG309      0.2205
    178  NE        43.1830   29.8620   16.8290 N.pl3 309  ARG309     -0.0865
    179  CZ        44.0730   30.2200   15.9060 C.cat 309  ARG309      0.5346
    180  NH1       45.0530   29.3820   15.5590 N.pl3 309  ARG309      0.1354
    181  NH2       43.8980   31.3530   15.2210 N.pl3 309  ARG309      0.1354
@<TRIPOS>BOND
     1   135   134    2
     2   124   125    1
     3   118   117    2
     4   134   133    1
     5   126   125    1
     6   126   127    2
     7   151   150    2
     8   125   128    1
     9   117   116    1
    10   132   133    1
    11     1     2    1
    12    50    51    1
    13    53    52    2
    14   133   136    1
    15   150   149    1
    16   115   116    1
    17   116   119    1
    18     4     3    2
    19    52    51    1
    20     2     3    1
    21     2     5    1
    22   128   130    1
    23   128   129    1
    24   140   141    1
    25    51    54    1
    26   181   179    1
    27   136   137    1
    28   129   131    1
    29   148   149    1
    30   148   142   am
    31   180   179    1
    32   149   152    1
    33     6     5    1
    34   138   137    2
    35    48    46    1
    36    88    89    2
    37    88    87    1
    38   179   178    2
    39     5     7    1
    40   119   120    1
    41    54    56    1
    42    54    55    1
    43   137   139   am
    44   158   156    1
    45   152   153    1
    46   153   154    1
    47   155   156    2
    48   155   154    1
    49   141   142    1
    50   141   144    1
    51    82    81    2
    52   176   175    1
    53   176   177    1
    54   142   143    2
    55    87    90    1
    56    87    86    1
    57   122   121   ar
    58    49    47    1
    59   178   177    1
    60   156   157    1
    61    84    83    1
    62   171   172    1
    63   120   121    1
    64   145   144    1
    65   145   146    1
    66   145   147    1
    67    46    47    1
    68    46    43    1
    69   175   172    1
    70    81    86   am
    71    81    80    1
    72   121   123   ar
    73    44    45    2
    74    44    43    1
    75   172   173    1
    76    43    42    1
    77    83    85    1
    78    83    80    1
    79    95    92    1
    80    94    93    2
    81    80    79    1
    82   173   174    2
    83    79    74   am
    84   112   111    2
    85   113   114    1
    86   113   110    1
    87    78    76    1
    88    91    92    1
    89    76    73    1
    90    76    77    1
    91   111   110    1
    92    92    93    1
    93    93    96   am
    94    42    36   am
    95    74    73    1
    96    74    75    2
    97    73    72    1
    98   110   109    1
    99    37    36    2
   100    99    98    2
   101   104   107    1
   102   104   103    1
   103   104   105    1
   104   107   108    1
   105    36    35    1
   106    98   103   am
   107    98    97    1
   108    96    97    1
   109    96   102    1
   110    97   100    1
   111   105   106    2
   112    35    38    1
   113    35    34    1
   114   102   101    1
   115   100   101    1
   116    38    39    1
   117   166   168   ar
   118   166   164   ar
   119    63    61    1
   120   168   169   ar
   121    34    29   am
   122    30    29    2
   123   162   161    2
   124   163   164    1
   125   163   160    1
   126    29    28    1
   127   164   165   ar
   128    61    58    1
   129    61    62    1
   130    39    40    1
   131    39    41    1
   132    31    32    1
   133    31    28    1
   134    32    33    1
   135   169   170    1
   136   169   167   ar
   137    58    57    1
   138    58    59    1
   139   161   160    1
   140    67    66    2
   141    70    69    1
   142    66    65    1
   143    68    69    1
   144    68    65    1
   145    18    16    1
   146    28    27    1
   147   160   159    1
   148   165   167   ar
   149    17    16    1
   150    69    71    1
   151    65    64    1
   152    25    24    2
   153    16    15    2
   154    60    59    2
   155    33    27    1
   156    27    21   am
   157    24    26   am
   158    24    23    1
   159    15    14    1
   160    22    21    2
   161    21    20    1
   162    14    13    1
   163    20    23    1
   164    20    19    1
   165    13    12    1
   166    12     9    1
   167     9     8    1
   168     9    10    1
   169    10    11    2
