@<TRIPOS>MOLECULE
tmp/3ajeA00.pdb
 121 116 0 0 0
SMALL
GASTEIGER

@<TRIPOS>ATOM
      1  N         31.2460   43.3690   17.1800 N.3    31  PHE31      -0.1241
      2  CA        30.9210   43.3930   15.7430 C.3    31  PHE31       0.1605
      3  C         31.5840   42.2300   15.0290 C.2    31  PHE31       0.2264
      4  O         32.6260   41.7440   15.4670 O.2    31  PHE31      -0.2867
      5  CB        31.4310   44.7060   15.1370 C.3    31  PHE31       0.0534
      6  CG        32.9230   44.8950   15.2820 C.ar   31  PHE31      -0.0203
      7  CD1       33.7940   44.6080   14.2310 C.ar   31  PHE31      -0.0042
      8  CD2       33.4570   45.3260   16.4950 C.ar   31  PHE31      -0.0042
      9  CE1       35.1830   44.7460   14.3830 C.ar   31  PHE31      -0.0003
     10  CE2       34.8400   45.4670   16.6660 C.ar   31  PHE31      -0.0003
     11  CZ        35.7040   45.1820   15.6200 C.ar   31  PHE31      -0.0000
     12  N         33.6460   40.1710   11.9890 N.3    33  THR33      -0.1218
     13  CA        34.7530   40.4170   11.0480 C.3    33  THR33       0.1862
     14  C         34.8310   39.0970   10.2500 C.2    33  THR33       0.2287
     15  O         34.0470   38.1700   10.5020 O.2    33  THR33      -0.2866
     16  CB        36.1320   40.6600   11.7200 C.3    33  THR33       0.1770
     17  OG1       36.6180   39.4260   12.2590 O.3    33  THR33      -0.2211
     18  CG2       36.0430   41.7680   12.7920 C.3    33  THR33       0.0375
     19  N         37.0460   36.8930   10.5690 N.3    35  THR35      -0.1203
     20  CA        37.6350   35.8230   11.3860 C.3    35  THR35       0.1994
     21  C         36.6580   35.4180   12.4800 C.2    35  THR35       0.2618
     22  O         35.9680   34.4080   12.3170 O.2    35  THR35      -0.2717
     23  CB        38.9860   36.2780   11.9750 C.3    35  THR35       0.1784
     24  OG1       38.8240   37.5380   12.6540 O.3    35  THR35      -0.2211
     25  CG2       39.9970   36.4600   10.8230 C.3    35  THR35       0.0376
     26  N         36.5740   36.2110   13.5440 N.am   36  VAL36      -0.1965
     27  CA        35.6560   35.9800   14.6590 C.3    36  VAL36       0.1727
     28  C         35.0700   37.3330   15.0460 C.2    36  VAL36       0.2616
     29  O         35.5680   38.3750   14.6120 O.2    36  VAL36      -0.2715
     30  CB        36.3950   35.3940   15.9380 C.3    36  VAL36       0.0290
     31  CG1       36.9730   33.9860   15.6220 C.3    36  VAL36       0.0023
     32  CG2       37.4770   36.3210   16.3870 C.3    36  VAL36       0.0023
     33  N         33.9990   37.3370   15.8390 N.am   37  TYR37      -0.1960
     34  CA        33.4700   38.6180   16.3080 C.3    37  TYR37       0.1771
     35  C         34.4960   39.2610   17.2570 C.2    37  TYR37       0.2620
     36  O         35.1640   38.5760   18.0180 O.2    37  TYR37      -0.2715
     37  CB        32.1950   38.4280   17.1080 C.3    37  TYR37       0.0574
     38  CG        30.9310   38.4340   16.2690 C.ar   37  TYR37      -0.0198
     39  CD1       30.6380   37.3850   15.4150 C.ar   37  TYR37      -0.0009
     40  CD2       30.0280   39.5080   16.3430 C.ar   37  TYR37      -0.0009
     41  CE1       29.4690   37.3780   14.6310 C.ar   37  TYR37       0.0417
     42  CE2       28.8480   39.5170   15.5660 C.ar   37  TYR37       0.0417
     43  CZ        28.5780   38.4580   14.7200 C.ar   37  TYR37       0.1957
     44  OH        27.4080   38.4360   13.9700 O.3    37  TYR37      -0.2866
     45  N         34.5840   40.5750   17.2390 N.am   38  GLY38      -0.1954
     46  CA        35.4960   41.2680   18.1160 C.3    38  GLY38       0.1869
     47  C         34.7030   42.1890   19.0300 C.2    38  GLY38       0.2309
     48  O         33.5650   42.5650   18.7070 O.2    38  GLY38      -0.2863
     49  N         44.4970   43.4520   19.5580 N.3    65  ILE65      -0.1245
     50  CA        44.7780   43.7690   18.1510 C.3    65  ILE65       0.1561
     51  C         43.9850   45.0120   17.7470 C.2    65  ILE65       0.2260
     52  O         42.7910   45.0970   17.9950 O.2    65  ILE65      -0.2867
     53  CB        44.3840   42.5850   17.2390 C.3    65  ILE65       0.0252
     54  CG1       45.3970   41.4540   17.4230 C.3    65  ILE65       0.0019
     55  CG2       44.3250   43.0140   15.7790 C.3    65  ILE65       0.0019
     56  CD1       45.0010   40.1410   16.7560 C.3    65  ILE65       0.0001
     57  N         42.3670   47.4550   14.9430 N.3    67  HIS67      -0.1241
     58  CA        41.8000   47.3100   13.5920 C.3    67  HIS67       0.1621
     59  C         41.7130   48.6760   12.9240 C.2    67  HIS67       0.2264
     60  O         41.2040   49.6200   13.5180 O.2    67  HIS67      -0.2867
     61  CB        40.4090   46.6930   13.7060 C.3    67  HIS67       0.0745
     62  CG        40.4180   45.3290   14.3130 C.ar   67  HIS67       0.0817
     63  ND1       40.8150   45.0950   15.6140 N.ar   67  HIS67      -0.2268
     64  CD2       40.1400   44.1190   13.7800 C.ar   67  HIS67       0.1154
     65  CE1       40.7800   43.7970   15.8510 C.ar   67  HIS67       0.1986
     66  NE2       40.3760   43.1830   14.7560 N.ar   67  HIS67      -0.2212
     67  N         45.6750   45.0340   12.1630 N.3   121  ARG121     -0.1245
     68  CA        45.1620   44.3710   10.9710 C.3   121  ARG121      0.1563
     69  C         44.0000   45.2080   10.4320 C.2   121  ARG121      0.2260
     70  O         43.4080   46.0270   11.1510 O.2   121  ARG121     -0.2867
     71  CB        44.7050   42.9120   11.2660 C.3   121  ARG121      0.0307
     72  CG        43.2760   42.7240   11.7650 C.3   121  ARG121      0.0489
     73  CD        43.0100   41.2090   12.0370 C.3   121  ARG121      0.2205
     74  NE        41.5820   40.8790   12.1070 N.pl3 121  ARG121     -0.0865
     75  CZ        40.8190   40.6520   11.0440 C.cat 121  ARG121      0.5346
     76  NH1       39.5250   40.3680   11.2130 N.pl3 121  ARG121      0.1354
     77  NH2       41.3460   40.7120    9.8090 N.pl3 121  ARG121      0.1354
     78  N         40.3240   45.4100   19.4020 N.3   141  ALA141     -0.1231
     79  CA        39.2680   44.4510   19.5460 C.3   141  ALA141      0.1679
     80  C         39.6680   42.9800   19.5580 C.2   141  ALA141      0.2434
     81  O         39.9440   42.4050   18.5010 O.2   141  ALA141     -0.2733
     82  CB        38.2230   44.6570   18.4020 C.3   141  ALA141      0.0304
     83  N         39.7140   42.3640   20.7450 N.am  142  PRO142     -0.2718
     84  CA        40.0600   40.9410   20.8580 C.3   142  PRO142      0.1535
     85  C         38.7480   40.2140   20.5680 C.2   142  PRO142      0.2599
     86  O         37.7090   40.8630   20.3270 O.2   142  PRO142     -0.2715
     87  CB        40.4270   40.7960   22.3240 C.3   142  PRO142      0.0310
     88  CG        39.4000   41.7300   22.9730 C.3   142  PRO142      0.0237
     89  CD        39.4700   42.9550   22.0760 C.3   142  PRO142      0.0939
     90  N         38.7510   38.8820   20.6240 N.am  143  SER143     -0.1950
     91  CA        37.5030   38.1380   20.3800 C.3   143  SER143      0.1924
     92  C         36.4100   38.5260   21.3850 C.2   143  SER143      0.2314
     93  O         36.6790   38.8000   22.5650 O.2   143  SER143     -0.2863
     94  CB        37.7800   36.6190   20.4450 C.3   143  SER143      0.2116
     95  OG        38.3690   36.3360   21.6960 O.3   143  SER143     -0.2180
     96  N         40.6350   32.9300   14.3920 N.3   180  GLU180     -0.1231
     97  CA        41.3190   34.2060   14.5290 C.3   180  GLU180      0.1699
     98  C         42.4130   34.4450   13.4960 C.2   180  GLU180      0.2592
     99  O         43.0220   33.5080   12.9850 O.2   180  GLU180     -0.2718
    100  CB        41.8890   34.3160   15.9420 C.3   180  GLU180      0.0402
    101  CG        40.8470   34.0550   17.0300 C.3   180  GLU180      0.1161
    102  CD        40.8220   32.6080   17.5030 C.2   180  GLU180      0.3649
    103  OE1       41.2090   31.7110   16.7470 O.co2 180  GLU180     -0.2457
    104  OE2       40.4020   32.3740   18.6650 O.co2 180  GLU180     -0.2457
    105  N         42.6840   35.7170   13.2390 N.am  181  SER181     -0.1952
    106  CA        43.6770   36.0770   12.2380 C.3   181  SER181      0.1924
    107  C         45.0800   35.5460   12.4870 C.2   181  SER181      0.2314
    108  O         45.5260   35.4030   13.6100 O.2   181  SER181     -0.2863
    109  CB        43.7960   37.6010   12.1660 C.3   181  SER181      0.2116
    110  OG        44.2670   38.0970   13.4060 O.3   181  SER181     -0.2180
    111  N         50.7890   33.1990   15.5470 N.3   195  ARG195     -0.1245
    112  CA        49.5250   32.4860   15.6010 C.3   195  ARG195      0.1563
    113  C         49.0790   32.1390   14.1990 C.2   195  ARG195      0.2260
    114  O         48.9690   33.0170   13.3520 O.2   195  ARG195     -0.2867
    115  CB        48.4310   33.3270   16.2730 C.3   195  ARG195      0.0307
    116  CG        47.0800   32.6060   16.3740 C.3   195  ARG195      0.0489
    117  CD        45.9950   33.4360   17.1150 C.3   195  ARG195      0.2205
    118  NE        45.5760   34.6340   16.3850 N.pl3 195  ARG195     -0.0865
    119  CZ        44.9300   35.6600   16.9340 C.cat 195  ARG195      0.5346
    120  NH1       44.6240   35.6590   18.2310 N.pl3 195  ARG195      0.1354
    121  NH2       44.5900   36.6870   16.1850 N.pl3 195  ARG195      0.1354
@<TRIPOS>BOND
     1    77    75    1
     2    14    15    2
     3    14    13    1
     4    69    68    1
     5    69    70    2
     6    19    20    1
     7    25    23    1
     8    68    71    1
     9    68    67    1
    10    75    76    1
    11    75    74    2
    12    13    16    1
    13    13    12    1
    14    71    72    1
    15    20    23    1
    16    20    21    1
    17    16    17    1
    18    16    18    1
    19    72    73    1
    20    23    24    1
    21    73    74    1
    22   109   106    1
    23   109   110    1
    24   106   107    1
    25   106   105    1
    26    22    21    2
    27    21    26   am
    28   107   108    2
    29    59    60    2
    30    59    58    1
    31    99    98    2
    32   105    98   am
    33   114   113    2
    34    98    97    1
    35    26    27    1
    36    58    61    1
    37    58    57    1
    38    61    62    1
    39    64    62   ar
    40    64    66   ar
    41    44    43    1
    42   113   112    1
    43     7     9   ar
    44     7     6   ar
    45    62    63   ar
    46     9    11   ar
    47    96    97    1
    48    97   100    1
    49    29    28    2
    50    41    43   ar
    51    41    39   ar
    52    27    28    1
    53    27    30    1
    54    43    42   ar
    55    66    65   ar
    56     3     4    2
    57     3     2    1
    58    28    33   am
    59     5     6    1
    60     5     2    1
    61     6     8   ar
    62    39    38   ar
    63   111   112    1
    64    42    40   ar
    65   112   115    1
    66    63    65   ar
    67    11    10   ar
    68    31    30    1
    69     2     1    1
    70    55    53    1
    71    33    34    1
    72    30    32    1
    73   100   101    1
    74   121   119    1
    75    38    40   ar
    76    38    37    1
    77   115   116    1
    78    34    37    1
    79    34    35    1
    80   116   117    1
    81   118   119    2
    82   118   117    1
    83     8    10   ar
    84   103   102   ar
    85    56    54    1
    86   119   120    1
    87   101   102    1
    88    53    54    1
    89    53    50    1
    90    45    35   am
    91    45    46    1
    92    35    36    2
    93   102   104   ar
    94    51    52    2
    95    51    50    1
    96    46    47    1
    97    50    49    1
    98    82    79    1
    99    81    80    2
   100    48    47    2
   101    78    79    1
   102    79    80    1
   103    80    83   am
   104    86    85    2
   105    91    94    1
   106    91    90    1
   107    91    92    1
   108    94    95    1
   109    85    90   am
   110    85    84    1
   111    83    84    1
   112    83    89    1
   113    84    87    1
   114    92    93    2
   115    89    88    1
   116    87    88    1
