@<TRIPOS>MOLECULE
tmp/3ajrB00.pdb
 120 118 0 0 0
SMALL
GASTEIGER

@<TRIPOS>ATOM
      1  N         32.7710    3.7490  -15.4020 N.3    10  GLN10      -0.1245
      2  CA        33.5710    2.5410  -15.1970 C.3    10  GLN10       0.1566
      3  C         33.9300    1.8560  -16.5090 C.2    10  GLN10       0.2260
      4  O         35.0710    1.4500  -16.7110 O.2    10  GLN10      -0.2867
      5  CB        32.8250    1.5380  -14.3040 C.3    10  GLN10       0.0367
      6  CG        33.6590    0.2970  -13.9610 C.3    10  GLN10       0.0905
      7  CD        32.8640   -0.8140  -13.2930 C.2    10  GLN10       0.2608
      8  OE1       33.4340   -1.8020  -12.8210 O.2    10  GLN10      -0.2717
      9  NE2       31.5500   -0.6680  -13.2620 N.am   10  GLN10      -0.0878
     10  N         22.9410    4.7750  -12.5600 N.3    73  LEU73      -0.1231
     11  CA        22.7910    3.3600  -12.2150 C.3    73  LEU73       0.1693
     12  C         21.7730    3.0840  -11.1050 C.2    73  LEU73       0.2592
     13  O         21.1170    3.9940  -10.6120 O.2    73  LEU73      -0.2718
     14  CB        24.1530    2.7630  -11.8490 C.3    73  LEU73       0.0284
     15  CG        25.2190    2.9280  -12.9360 C.3    73  LEU73       0.0019
     16  CD1       26.4480    2.0890  -12.6160 C.3    73  LEU73       0.0001
     17  CD2       24.6370    2.5130  -14.2630 C.3    73  LEU73       0.0001
     18  N         21.6530    1.8210  -10.7080 N.am   74  SER74      -0.1952
     19  CA        20.6630    1.4330   -9.7060 C.3    74  SER74       0.1924
     20  C         20.6480    2.1810   -8.3810 C.2    74  SER74       0.2314
     21  O         19.6070    2.7090   -7.9800 O.2    74  SER74      -0.2863
     22  CB        20.7400   -0.0770   -9.4330 C.3    74  SER74       0.2116
     23  OG        21.9570   -0.4540   -8.8080 O.3    74  SER74      -0.2180
     24  N         21.2820   -4.1690  -18.5630 N.3   112  THR112     -0.1203
     25  CA        21.6340   -4.6480  -17.2350 C.3   112  THR112      0.1994
     26  C         20.7120   -5.7240  -16.6740 C.2   112  THR112      0.2617
     27  O         19.5720   -5.8670  -17.1140 O.2   112  THR112     -0.2717
     28  CB        21.5770   -3.4420  -16.2870 C.3   112  THR112      0.1784
     29  OG1       21.7740   -3.8550  -14.9360 O.3   112  THR112     -0.2211
     30  CG2       20.2060   -2.7730  -16.4050 C.3   112  THR112      0.0376
     31  N         21.2050   -6.4760  -15.6910 N.am  113  ILE113     -0.1979
     32  CA        20.3750   -7.4830  -15.0470 C.3   113  ILE113      0.1595
     33  C         19.3290   -6.7180  -14.2320 C.2   113  ILE113      0.2287
     34  O         18.4080   -7.3020  -13.6670 O.2   113  ILE113     -0.2864
     35  CB        21.1960   -8.4120  -14.1150 C.3   113  ILE113      0.0276
     36  CG1       22.0000   -7.5830  -13.1130 C.3   113  ILE113      0.0022
     37  CG2       22.1180   -9.3040  -14.9520 C.3   113  ILE113      0.0022
     38  CD1       22.7240   -8.4170  -12.0530 C.3   113  ILE113      0.0001
     39  N         16.0440    2.7410  -12.3380 N.3   137  PHE137     -0.1241
     40  CA        17.1080    2.3620  -13.2580 C.3   137  PHE137      0.1605
     41  C         16.6420    1.1960  -14.1390 C.2   137  PHE137      0.2264
     42  O         16.7350    1.2510  -15.3700 O.2   137  PHE137     -0.2867
     43  CB        18.3430    1.9690  -12.4360 C.3   137  PHE137      0.0534
     44  CG        19.3850    1.1910  -13.1960 C.ar  137  PHE137     -0.0203
     45  CD1       20.1250    1.7830  -14.2090 C.ar  137  PHE137     -0.0042
     46  CD2       19.6620   -0.1260  -12.8500 C.ar  137  PHE137     -0.0042
     47  CE1       21.1360    1.0760  -14.8650 C.ar  137  PHE137     -0.0003
     48  CE2       20.6650   -0.8410  -13.4970 C.ar  137  PHE137     -0.0003
     49  CZ        21.4070   -0.2390  -14.5070 C.ar  137  PHE137     -0.0000
     50  N         24.5700   -6.5700  -18.9410 N.3   164  TYR164     -0.1228
     51  CA        25.7220   -6.8440  -18.1040 C.3   164  TYR164      0.1721
     52  C         25.3220   -7.1700  -16.6730 C.2   164  TYR164      0.2437
     53  O         24.3200   -6.6690  -16.1610 O.2   164  TYR164     -0.2733
     54  CB        26.6480   -5.6350  -18.0140 C.3   164  TYR164      0.0547
     55  CG        27.5310   -5.3660  -19.1950 C.ar  164  TYR164     -0.0200
     56  CD1       28.3860   -6.3500  -19.6890 C.ar  164  TYR164     -0.0009
     57  CD2       27.5900   -4.0940  -19.7600 C.ar  164  TYR164     -0.0009
     58  CE1       29.2860   -6.0690  -20.7090 C.ar  164  TYR164      0.0417
     59  CE2       28.4880   -3.8020  -20.7780 C.ar  164  TYR164      0.0417
     60  CZ        29.3350   -4.7940  -21.2430 C.ar  164  TYR164      0.1957
     61  OH        30.2460   -4.5060  -22.2300 O.3   164  TYR164     -0.2866
     62  N         26.1050   -8.0340  -16.0140 N.am  165  PRO165     -0.2718
     63  CA        25.8470   -8.4080  -14.6240 C.3   165  PRO165      0.1535
     64  C         26.7330   -7.3870  -13.9050 C.2   165  PRO165      0.2599
     65  O         27.0500   -6.3480  -14.4770 O.2   165  PRO165     -0.2715
     66  CB        26.4150   -9.8170  -14.5420 C.3   165  PRO165      0.0310
     67  CG        27.6260   -9.7240  -15.4400 C.3   165  PRO165      0.0237
     68  CD        27.0960   -8.9380  -16.6310 C.3   165  PRO165      0.0939
     69  N         27.1470   -7.6610  -12.6730 N.am  166  GLY166     -0.1941
     70  CA        28.0300   -6.7140  -12.0190 C.3   166  GLY166      0.2014
     71  C         29.3860   -6.8030  -12.7030 C.2   166  GLY166      0.2638
     72  O         29.8170   -7.8960  -13.0760 O.2   166  GLY166     -0.2714
     73  N         30.0630   -5.6750  -12.8950 N.am  167  ILE167     -0.1977
     74  CA        31.3720   -5.7080  -13.5400 C.3   167  ILE167      0.1596
     75  C         32.4880   -5.3370  -12.5690 C.2   167  ILE167      0.2287
     76  O         32.4250   -4.3110  -11.8880 O.2   167  ILE167     -0.2864
     77  CB        31.4440   -4.7560  -14.7620 C.3   167  ILE167      0.0276
     78  CG1       30.3680   -5.1260  -15.7850 C.3   167  ILE167      0.0022
     79  CG2       32.8220   -4.8610  -15.4210 C.3   167  ILE167      0.0022
     80  CD1       30.3620   -4.2380  -17.0160 C.3   167  ILE167      0.0001
     81  N         28.1620    1.8900   -6.2250 N.3   177  GLY177     -0.1210
     82  CA        27.0700    1.2060   -6.8900 C.3   177  GLY177      0.1956
     83  C         26.6810   -0.0820   -6.1870 C.2   177  GLY177      0.2613
     84  O         27.4460   -0.6320   -5.3990 O.2   177  GLY177     -0.2717
     85  N         25.4850   -0.5690   -6.4830 N.am  178  THR178     -0.1938
     86  CA        24.9850   -1.7940   -5.8720 C.3   178  THR178      0.2028
     87  C         25.9730   -2.9610   -5.9580 C.2   178  THR178      0.2643
     88  O         26.1700   -3.6800   -4.9790 O.2   178  THR178     -0.2714
     89  CB        23.6500   -2.2020   -6.5170 C.3   178  THR178      0.1808
     90  OG1       22.7010   -1.1430   -6.3380 O.3   178  THR178     -0.2208
     91  CG2       23.1030   -3.4680   -5.8750 C.3   178  THR178      0.0379
     92  N         26.6050   -3.1490   -7.1140 N.am  179  THR179     -0.1936
     93  CA        27.5480   -4.2530   -7.2650 C.3   179  THR179      0.2028
     94  C         29.0060   -3.8460   -7.0520 C.2   179  THR179      0.2642
     95  O         29.9070   -4.6830   -7.1580 O.2   179  THR179     -0.2714
     96  CB        27.4260   -4.9160   -8.6640 C.3   179  THR179      0.1808
     97  OG1       27.7490   -3.9640   -9.6860 O.3   179  THR179     -0.2208
     98  CG2       26.0070   -5.4350   -8.8890 C.3   179  THR179      0.0379
     99  N         29.2430   -2.5720   -6.7450 N.am  180  ASP180     -0.1971
    100  CA        30.6090   -2.0930   -6.5530 C.3   180  ASP180      0.1709
    101  C         31.3290   -2.6510   -5.3240 C.2   180  ASP180      0.2293
    102  O         32.5360   -2.4570   -5.1720 O.2   180  ASP180     -0.2864
    103  CB        30.6510   -0.5550   -6.5170 C.3   180  ASP180      0.1436
    104  CG        30.5280    0.0760   -7.9030 C.2   180  ASP180      0.3671
    105  OD1       30.6640   -0.6420   -8.9220 O.co2 180  ASP180     -0.2456
    106  OD2       30.3070    1.3030   -7.9760 O.co2 180  ASP180     -0.2456
    107  N         17.0650   -9.1610   -7.9880 N.3   273  TRP273     -0.1241
    108  CA        17.7140   -9.6610   -9.1990 C.3   273  TRP273      0.1605
    109  C         18.0270  -11.1510   -9.1400 C.2   273  TRP273      0.2264
    110  O         18.1150  -11.7340   -8.0620 O.2   273  TRP273     -0.2867
    111  CB        19.0260   -8.9080   -9.4570 C.3   273  TRP273      0.0550
    112  CG        18.8780   -7.4160   -9.6280 C.ar  273  TRP273      0.0003
    113  CD1       17.7400   -6.7330   -9.9590 C.ar  273  TRP273      0.0946
    114  CD2       19.9230   -6.4350   -9.5370 C.ar  273  TRP273      0.0152
    115  NE1       18.0140   -5.3820  -10.0830 N.ar  273  TRP273     -0.2442
    116  CE2       19.3460   -5.1770   -9.8300 C.ar  273  TRP273      0.0810
    117  CE3       21.2930   -6.4980   -9.2410 C.ar  273  TRP273      0.0012
    118  CZ2       20.0920   -3.9920   -9.8350 C.ar  273  TRP273      0.0191
    119  CZ3       22.0360   -5.3180   -9.2480 C.ar  273  TRP273      0.0001
    120  CH2       21.4310   -4.0830   -9.5420 C.ar  273  TRP273      0.0015
@<TRIPOS>BOND
     1    61    60    1
     2    60    59   ar
     3    60    58   ar
     4    59    57   ar
     5    58    56   ar
     6    57    55   ar
     7    56    55   ar
     8    55    54    1
     9    50    51    1
    10    24    25    1
    11    51    54    1
    12    51    52    1
    13    25    26    1
    14    25    28    1
    15    27    26    2
    16    80    78    1
    17     4     3    2
    18    26    31   am
    19    52    53    2
    20    52    62   am
    21    68    62    1
    22    68    67    1
    23     3     2    1
    24    30    28    1
    25    28    29    1
    26    62    63    1
    27    78    77    1
    28    31    32    1
    29    67    66    1
    30    79    77    1
    31     1     2    1
    32    42    41    2
    33     2     5    1
    34    32    33    1
    35    32    35    1
    36    37    35    1
    37    47    49   ar
    38    47    45   ar
    39    77    74    1
    40    63    66    1
    41    63    64    1
    42    49    48   ar
    43    65    64    2
    44     5     6    1
    45    17    15    1
    46    33    34    2
    47    45    44   ar
    48    41    40    1
    49    35    36    1
    50     6     7    1
    51    64    69   am
    52    74    73    1
    53    74    75    1
    54    48    46   ar
    55     7     9   am
    56     7     8    2
    57    40    43    1
    58    40    39    1
    59    44    46   ar
    60    44    43    1
    61    36    38    1
    62    72    71    2
    63    15    16    1
    64    15    14    1
    65    73    71   am
    66    71    70    1
    67    69    70    1
    68    75    76    2
    69    10    11    1
    70    11    14    1
    71    11    12    1
    72    12    18   am
    73    12    13    2
    74    18    19    1
    75   115   113   ar
    76   115   116   ar
    77   113   112   ar
    78   118   116   ar
    79   118   120   ar
    80   116   114   ar
    81    19    22    1
    82    19    20    1
    83    97    96    1
    84   112   114   ar
    85   112   111    1
    86   120   119   ar
    87   114   117   ar
    88   111   108    1
    89    22    23    1
    90   119   117   ar
    91   108   109    1
    92   108   107    1
    93   109   110    2
    94   105   104   ar
    95    98    96    1
    96    96    93    1
    97    20    21    2
    98   106   104   ar
    99   104   103    1
   100    93    92    1
   101    93    94    1
   102    95    94    2
   103    92    87   am
   104    94    99   am
   105    82    81    1
   106    82    83    1
   107    99   100    1
   108   100   103    1
   109   100   101    1
   110    89    90    1
   111    89    91    1
   112    89    86    1
   113    85    83   am
   114    85    86    1
   115    83    84    2
   116    87    86    1
   117    87    88    2
   118   101   102    2
