@<TRIPOS>MOLECULE
tmp/3ajyB00.pdb
 109 102 0 0 0
SMALL
GASTEIGER

@<TRIPOS>ATOM
      1  N          5.4710  -21.0930   53.8110 N.3    28  ARG28      -0.1245
      2  CA         4.9770  -19.7500   54.1300 C.3    28  ARG28       0.1563
      3  C          4.2680  -19.1440   52.9170 C.2    28  ARG28       0.2260
      4  O          4.5340  -19.5210   51.7690 O.2    28  ARG28      -0.2867
      5  CB         6.1330  -18.8410   54.5520 C.3    28  ARG28       0.0307
      6  CG         7.1660  -18.6470   53.4330 C.3    28  ARG28       0.0489
      7  CD         8.5140  -18.2190   53.9210 C.3    28  ARG28       0.2205
      8  NE         8.5170  -16.7950   54.1820 N.pl3  28  ARG28      -0.0865
      9  CZ         9.3850  -15.9230   53.6800 C.cat  28  ARG28       0.5346
     10  NH1        9.2620  -14.6470   54.0190 N.pl3  28  ARG28       0.1354
     11  NH2       10.3750  -16.3070   52.8650 N.pl3  28  ARG28       0.1354
     12  N          2.6150   -6.1410   55.3100 N.3    43  HIS43      -0.1241
     13  CA         3.0850   -7.4310   54.8680 C.3    43  HIS43       0.1621
     14  C          2.6360   -8.4160   55.9330 C.2    43  HIS43       0.2264
     15  O          2.9620   -8.2580   57.1080 O.2    43  HIS43      -0.2867
     16  CB         4.6070   -7.3890   54.7580 C.3    43  HIS43       0.0745
     17  CG         5.2780   -8.7260   54.6410 C.ar   43  HIS43       0.0817
     18  ND1        5.2660   -9.4750   53.4810 N.ar   43  HIS43      -0.2268
     19  CD2        6.0550   -9.4060   55.5170 C.ar   43  HIS43       0.1154
     20  CE1        6.0010  -10.5590   53.6490 C.ar   43  HIS43       0.1986
     21  NE2        6.4820  -10.5460   54.8800 N.ar   43  HIS43      -0.2212
     22  N          2.9950  -12.2530   56.6130 N.3    45  ASP45      -0.1239
     23  CA         3.6330  -13.5180   56.2550 C.3    45  ASP45       0.1674
     24  C          3.0940  -14.6080   57.1670 C.2    45  ASP45       0.2266
     25  O          3.3280  -14.6160   58.3700 O.2    45  ASP45      -0.2867
     26  CB         5.1750  -13.4110   56.3070 C.3    45  ASP45       0.1410
     27  CG         5.8760  -14.4590   55.4340 C.2    45  ASP45       0.3668
     28  OD1        5.2530  -15.0090   54.5010 O.co2  45  ASP45      -0.2456
     29  OD2        7.0680  -14.7370   55.6760 O.co2  45  ASP45      -0.2456
     30  N          3.5270  -17.9460   58.3230 N.3    47  ARG47      -0.1245
     31  CA         4.6290  -18.9100   58.3470 C.3    47  ARG47       0.1563
     32  C          4.1950  -20.2150   59.0190 C.2    47  ARG47       0.2260
     33  O          4.0480  -20.2590   60.2290 O.2    47  ARG47      -0.2867
     34  CB         5.8510  -18.3000   59.0560 C.3    47  ARG47       0.0307
     35  CG         5.8980  -16.7780   58.9400 C.3    47  ARG47       0.0489
     36  CD         7.0610  -16.2050   58.1680 C.3    47  ARG47       0.2205
     37  NE         8.1200  -15.8820   59.0910 N.pl3  47  ARG47      -0.0865
     38  CZ         9.0020  -14.8870   58.9820 C.cat  47  ARG47       0.5346
     39  NH1        9.0130  -14.0400   57.9670 N.pl3  47  ARG47       0.1354
     40  NH2        9.8930  -14.7530   59.9420 N.pl3  47  ARG47       0.1354
     41  N          8.9420  -21.4460   58.9670 N.3    50  TYR50      -0.1241
     42  CA         9.9940  -20.6220   58.3720 C.3    50  TYR50       0.1605
     43  C         10.9670  -20.1690   59.4450 C.2    50  TYR50       0.2264
     44  O         10.6250  -19.3320   60.2870 O.2    50  TYR50      -0.2867
     45  CB         9.4010  -19.4060   57.6520 C.3    50  TYR50       0.0534
     46  CG        10.4330  -18.4690   57.0440 C.ar   50  TYR50      -0.0201
     47  CD1       11.2300  -18.8670   55.9790 C.ar   50  TYR50      -0.0009
     48  CD2       10.5780  -17.1670   57.5180 C.ar   50  TYR50      -0.0009
     49  CE1       12.1700  -17.9920   55.4090 C.ar   50  TYR50       0.0417
     50  CE2       11.5050  -16.2880   56.9590 C.ar   50  TYR50       0.0417
     51  CZ        12.2970  -16.7080   55.9080 C.ar   50  TYR50       0.1957
     52  OH        13.2090  -15.8340   55.3550 O.3    50  TYR50      -0.2866
     53  N         10.0420  -19.6140   63.2720 N.3    53  ASP53      -0.1239
     54  CA         8.5900  -19.3510   63.2630 C.3    53  ASP53       0.1674
     55  C          7.7980  -20.5720   62.7930 C.2    53  ASP53       0.2266
     56  O          7.9820  -21.0720   61.6730 O.2    53  ASP53      -0.2867
     57  CB         8.2500  -18.1500   62.3800 C.3    53  ASP53       0.1410
     58  CG         8.7800  -16.8520   62.9390 C.2    53  ASP53       0.3668
     59  OD1        8.5670  -16.5760   64.1360 O.co2  53  ASP53      -0.2456
     60  OD2        9.4290  -16.1070   62.1940 O.co2  53  ASP53      -0.2456
     61  N          3.6460  -13.1360   60.7310 N.3    58  VAL58      -0.1245
     62  CA         4.5880  -12.0490   60.9170 C.3    58  VAL58       0.1561
     63  C          4.0890  -10.8390   60.1200 C.2    58  VAL58       0.2260
     64  O          3.8730  -10.9270   58.8970 O.2    58  VAL58      -0.2867
     65  CB         6.0210  -12.4360   60.4900 C.3    58  VAL58       0.0252
     66  CG1        6.9660  -11.2920   60.6920 C.3    58  VAL58       0.0019
     67  CG2        6.5120  -13.6680   61.2590 C.3    58  VAL58       0.0019
     68  N          4.6810   -6.7780   59.0720 N.3    60  ASN60      -0.1240
     69  CA         5.7130   -5.7460   58.9190 C.3    60  ASN60       0.1653
     70  C          5.2970   -4.7310   57.8610 C.2    60  ASN60       0.2266
     71  O          4.2200   -4.8510   57.2610 O.2    60  ASN60      -0.2867
     72  CB         7.0730   -6.3810   58.5750 C.3    60  ASN60       0.1155
     73  CG         8.2680   -5.5700   59.1040 C.2    60  ASN60       0.2627
     74  OD1        8.1130   -4.4680   59.6160 O.2    60  ASN60      -0.2716
     75  ND2        9.4600   -6.1290   58.9740 N.am   60  ASN60      -0.0877
     76  N         12.7690   -3.5700   55.2930 N.3    67  TRP67      -0.1241
     77  CA        11.8260   -4.0290   56.3080 C.3    67  TRP67       0.1605
     78  C         11.9810   -3.2540   57.6020 C.2    67  TRP67       0.2264
     79  O         13.0960   -2.9050   58.0070 O.2    67  TRP67      -0.2867
     80  CB        12.0390   -5.5130   56.6140 C.3    67  TRP67       0.0550
     81  CG        11.6800   -6.4020   55.4920 C.ar   67  TRP67       0.0003
     82  CD1       12.5200   -7.2130   54.7920 C.ar   67  TRP67       0.0946
     83  CD2       10.3750   -6.5890   54.9300 C.ar   67  TRP67       0.0152
     84  NE1       11.8230   -7.8990   53.8250 N.ar   67  TRP67      -0.2442
     85  CE2       10.5020   -7.5380   53.8890 C.ar   67  TRP67       0.0810
     86  CE3        9.1070   -6.0620   55.2140 C.ar   67  TRP67       0.0012
     87  CZ2        9.4100   -7.9560   53.1140 C.ar   67  TRP67       0.0191
     88  CZ3        8.0240   -6.4770   54.4360 C.ar   67  TRP67       0.0001
     89  CH2        8.1870   -7.4190   53.4050 C.ar   67  TRP67       0.0015
     90  N          9.1410   -6.0110   63.0650 N.3    70  GLU70      -0.1245
     91  CA         8.1330   -7.0520   62.9720 C.3    70  GLU70       0.1567
     92  C          7.2610   -7.1340   64.2110 C.2    70  GLU70       0.2260
     93  O          7.7390   -6.9940   65.3370 O.2    70  GLU70      -0.2867
     94  CB         8.8050   -8.4150   62.7830 C.3    70  GLU70       0.0388
     95  CG         9.4900   -8.6050   61.4550 C.3    70  GLU70       0.1160
     96  CD        10.3110   -9.8790   61.3880 C.2    70  GLU70       0.3649
     97  OE1       10.5160  -10.5450   62.4360 O.co2  70  GLU70      -0.2457
     98  OE2       10.7570  -10.2190   60.2800 O.co2  70  GLU70      -0.2457
     99  N          4.1220   -9.9620   65.6720 N.3    72  ARG72      -0.1245
    100  CA         3.8190  -11.3820   65.4930 C.3    72  ARG72       0.1563
    101  C          2.4790  -11.7560   66.1080 C.2    72  ARG72       0.2260
    102  O          2.0490  -11.1690   67.1130 O.2    72  ARG72      -0.2867
    103  CB         4.9400  -12.2740   66.0550 C.3    72  ARG72       0.0307
    104  CG         6.0550  -12.5690   65.0590 C.3    72  ARG72       0.0489
    105  CD         7.2000  -13.4150   65.6520 C.3    72  ARG72       0.2205
    106  NE         8.2100  -13.7790   64.6400 N.pl3  72  ARG72      -0.0865
    107  CZ         8.9990  -12.9040   64.0240 C.cat  72  ARG72       0.5346
    108  NH1        8.9110  -11.6070   64.3210 N.pl3  72  ARG72       0.1354
    109  NH2        9.8690  -13.3140   63.1080 N.pl3  72  ARG72       0.1354
@<TRIPOS>BOND
     1     4     3    2
     2    11     9    1
     3     3     2    1
     4    87    89   ar
     5    87    85   ar
     6    89    88   ar
     7     6     7    1
     8     6     5    1
     9    18    20   ar
    10    18    17   ar
    11    20    21   ar
    12     9    10    1
    13     9     8    2
    14     1     2    1
    15    84    85   ar
    16    84    82   ar
    17    85    83   ar
    18     7     8    1
    19     2     5    1
    20    88    86   ar
    21    28    27   ar
    22    17    16    1
    23    17    19   ar
    24    16    13    1
    25    82    81   ar
    26    13    12    1
    27    13    14    1
    28    21    19   ar
    29    83    86   ar
    30    83    81   ar
    31    76    77    1
    32    52    51    1
    33    49    51   ar
    34    49    47   ar
    35    27    29   ar
    36    27    26    1
    37    81    80    1
    38    51    50   ar
    39    14    15    2
    40    47    46   ar
    41    23    26    1
    42    23    22    1
    43    23    24    1
    44    77    80    1
    45    77    78    1
    46    50    48   ar
    47    46    48   ar
    48    46    45    1
    49    24    25    2
    50    71    70    2
    51    78    79    2
    52    45    42    1
    53    70    69    1
    54    39    38    1
    55    36    35    1
    56    36    37    1
    57    30    31    1
    58    31    32    1
    59    31    34    1
    60    42    41    1
    61    42    43    1
    62    72    69    1
    63    72    73    1
    64    64    63    2
    65    69    68    1
    66    35    34    1
    67    75    73   am
    68    38    37    2
    69    38    40    1
    70    32    33    2
    71    73    74    2
    72    43    44    2
    73    63    62    1
    74    98    96   ar
    75    65    66    1
    76    65    62    1
    77    65    67    1
    78    61    62    1
    79    96    95    1
    80    96    97   ar
    81    95    94    1
    82    56    55    2
    83    60    58   ar
    84    57    58    1
    85    57    54    1
    86    94    91    1
    87    55    54    1
    88    58    59   ar
    89    91    90    1
    90    91    92    1
    91   109   107    1
    92    54    53    1
    93   107   108    1
    94   107   106    2
    95    92    93    2
    96   106   105    1
    97   104   105    1
    98   104   103    1
    99   100    99    1
   100   100   103    1
   101   100   101    1
   102   101   102    2
