@<TRIPOS>MOLECULE
tmp/3akcA01.pdb
 128 122 0 0 0
SMALL
GASTEIGER

@<TRIPOS>ATOM
      1  N         -1.0900   38.7490   17.0690 N.3    11  SER11      -0.1202
      2  CA        -1.0870   37.2920   17.2710 C.3    11  SER11       0.2020
      3  C         -0.2500   36.8140   18.4560 C.2    11  SER11       0.2619
      4  O          0.9030   37.2110   18.6150 O.2    11  SER11      -0.2717
      5  CB        -0.5670   36.6030   16.0120 C.3    11  SER11       0.2103
      6  OG        -1.2430   37.1220   14.9000 O.3    11  SER11      -0.2182
      7  N         -0.8220   35.9310   19.2580 N.am   12  ALA12      -0.1965
      8  CA        -0.1410   35.3730   20.4400 C.3    12  ALA12       0.1728
      9  C          0.3030   36.3930   21.5250 C.2    12  ALA12       0.2617
     10  O          1.1470   36.0840   22.3790 O.2    12  ALA12      -0.2715
     11  CB         1.0430   34.4930   19.9890 C.3    12  ALA12       0.0334
     12  N         -0.2980   37.5870   21.5390 N.am   13  SER13      -0.1936
     13  CA         0.0300   38.5650   22.5790 C.3    13  SER13       0.2055
     14  C         -0.6410   38.1040   23.8870 C.2    13  SER13       0.2644
     15  O         -0.3080   38.6040   24.9670 O.2    13  SER13      -0.2714
     16  CB        -0.4450   39.9870   22.2150 C.3    13  SER13       0.2130
     17  OG        -1.8530   40.0330   21.8940 O.3    13  SER13      -0.2179
     18  N         -1.6100   37.1660   23.7730 N.am   14  GLY14      -0.1939
     19  CA        -2.2720   36.5940   24.9360 C.3    14  GLY14       0.2014
     20  C         -3.7680   36.8780   25.1260 C.2    14  GLY14       0.2639
     21  O         -4.3460   36.5200   26.1400 O.2    14  GLY14      -0.2714
     22  N         -4.3890   37.4810   24.1150 N.am   15  LYS15      -0.1963
     23  CA        -5.8040   37.8890   24.1980 C.3    15  LYS15       0.1728
     24  C         -6.8200   36.8460   24.5980 C.2    15  LYS15       0.2617
     25  O         -7.5610   37.0330   25.5530 O.2    15  LYS15      -0.2715
     26  CB        -6.2850   38.4700   22.8720 C.3    15  LYS15       0.0311
     27  CG        -5.4240   39.4950   22.2610 C.3    15  LYS15       0.0038
     28  CD        -6.0430   39.9450   20.9130 C.3    15  LYS15       0.0206
     29  CE        -6.0330   38.8490   19.8540 C.3    15  LYS15       0.1093
     30  NZ        -4.6080   38.5390   19.3940 N.3    15  LYS15      -0.1314
     31  N         -6.8830   35.7490   23.8670 N.am   16  SER16      -0.1936
     32  CA        -7.8950   34.7310   24.2000 C.3    16  SER16       0.2055
     33  C         -7.7550   34.1490   25.6030 C.2    16  SER16       0.2644
     34  O         -8.7540   33.9860   26.3180 O.2    16  SER16      -0.2714
     35  CB        -7.8650   33.6030   23.1480 C.3    16  SER16       0.2130
     36  OG        -7.8210   34.0890   21.8000 O.3    16  SER16      -0.2179
     37  N         -6.5170   33.8330   26.0150 N.am   17  SER17      -0.1935
     38  CA        -6.2790   33.2680   27.3410 C.3    17  SER17       0.2055
     39  C         -6.6020   34.2640   28.4590 C.2    17  SER17       0.2642
     40  O         -7.2180   33.9270   29.4720 O.2    17  SER17      -0.2714
     41  CB        -4.8340   32.8110   27.4240 C.3    17  SER17       0.2130
     42  OG        -4.6490   31.7700   26.4950 O.3    17  SER17      -0.2179
     43  N         -6.2090   35.5120   28.2410 N.am   18  VAL18      -0.1977
     44  CA        -6.4690   36.5460   29.2260 C.3    18  VAL18       0.1596
     45  C         -7.9840   36.8520   29.2920 C.2    18  VAL18       0.2287
     46  O         -8.5570   36.9130   30.3730 O.2    18  VAL18      -0.2864
     47  CB        -5.6790   37.8260   28.8990 C.3    18  VAL18       0.0276
     48  CG1       -6.1040   38.9590   29.7870 C.3    18  VAL18       0.0022
     49  CG2       -4.2040   37.5580   29.1200 C.3    18  VAL18       0.0022
     50  N          5.5180   31.4260   21.8400 N.3   152  ARG152     -0.1231
     51  CA         4.2560   30.9570   22.4180 C.3   152  ARG152      0.1694
     52  C          3.4310   30.1640   21.4000 C.2   152  ARG152      0.2591
     53  O          2.9090   29.0650   21.6830 O.2   152  ARG152     -0.2718
     54  CB         3.4140   32.1550   22.8730 C.3   152  ARG152      0.0321
     55  CG         4.0040   32.9180   24.0450 C.3   152  ARG152      0.0489
     56  CD         3.2010   34.1760   24.2880 C.3   152  ARG152      0.2205
     57  NE         3.6970   34.8770   25.4580 N.pl3 152  ARG152     -0.0865
     58  CZ         3.2340   36.0460   25.8870 C.cat 152  ARG152      0.5346
     59  NH1        2.2360   36.6540   25.2340 N.pl3 152  ARG152      0.1354
     60  NH2        3.7790   36.6160   26.9540 N.pl3 152  ARG152      0.1354
     61  N          3.3170   30.7390   20.2080 N.am  153  ARG153     -0.1980
     62  CA         2.5200   30.1440   19.1510 C.3   153  ARG153      0.1597
     63  C          3.0890   28.8300   18.6220 C.2   153  ARG153      0.2287
     64  O          2.3360   27.9380   18.2460 O.2   153  ARG153     -0.2864
     65  CB         2.3350   31.1500   18.0180 C.3   153  ARG153      0.0334
     66  CG         1.3260   30.7270   16.9400 C.3   153  ARG153      0.0492
     67  CD         0.0380   30.1000   17.4970 C.3   153  ARG153      0.2205
     68  NE        -0.6530   30.8290   18.5800 N.pl3 153  ARG153     -0.0865
     69  CZ        -1.3780   31.9340   18.4360 C.cat 153  ARG153      0.5346
     70  NH1       -1.5290   32.5110   17.2400 N.pl3 153  ARG153      0.1354
     71  NH2       -2.0020   32.4410   19.5120 N.pl3 153  ARG153      0.1354
     72  N          4.3950   26.5750   20.3070 N.3   155  ARG155     -0.1231
     73  CA         3.9640   25.5330   21.2340 C.3   155  ARG155      0.1694
     74  C          2.5640   25.0340   20.8590 C.2   155  ARG155      0.2591
     75  O          2.1370   23.9560   21.2960 O.2   155  ARG155     -0.2718
     76  CB         3.9400   26.0650   22.6800 C.3   155  ARG155      0.0321
     77  CG         5.3070   26.3570   23.3010 C.3   155  ARG155      0.0489
     78  CD         5.1990   26.6940   24.8060 C.3   155  ARG155      0.2205
     79  NE         4.4900   27.9590   25.0450 N.pl3 155  ARG155     -0.0865
     80  CZ         4.2530   28.4870   26.2500 C.cat 155  ARG155      0.5346
     81  NH1        4.6670   27.8620   27.3520 N.pl3 155  ARG155      0.1354
     82  NH2        3.6000   29.6420   26.3580 N.pl3 155  ARG155      0.1354
     83  N          1.8610   25.8020   20.0270 N.am  156  GLU156     -0.1979
     84  CA         0.4930   25.4640   19.6300 C.3   156  GLU156      0.1602
     85  C          0.2810   25.1440   18.1500 C.2   156  GLU156      0.2287
     86  O         -0.8580   25.1570   17.6840 O.2   156  GLU156     -0.2864
     87  CB        -0.4470   26.6240   19.9830 C.3   156  GLU156      0.0415
     88  CG        -0.1030   27.3410   21.2630 C.3   156  GLU156      0.1163
     89  CD        -1.1020   28.4430   21.5940 C.2   156  GLU156      0.3649
     90  OE1       -1.1280   29.4800   20.8930 O.co2 156  GLU156     -0.2457
     91  OE2       -1.8670   28.2650   22.5590 O.co2 156  GLU156     -0.2457
     92  N          3.1060   41.9680   27.4060 N.3   190  THR190     -0.1218
     93  CA         2.9700   40.7220   28.1330 C.3   190  THR190      0.1862
     94  C          4.1960   39.8290   28.0760 C.2   190  THR190      0.2287
     95  O          4.2090   38.7520   28.6870 O.2   190  THR190     -0.2866
     96  CB         1.7480   39.9190   27.6030 C.3   190  THR190      0.1770
     97  OG1        1.9560   39.5520   26.2390 O.3   190  THR190     -0.2211
     98  CG2        0.4830   40.7890   27.6420 C.3   190  THR190      0.0375
     99  N          5.7980   37.7880   31.1350 N.3   193  MET193     -0.1230
    100  CA         4.7590   37.6310   32.1520 C.3   193  MET193      0.1702
    101  C          4.0350   36.3250   31.9570 C.2   193  MET193      0.2593
    102  O          3.9710   35.7800   30.8390 O.2   193  MET193     -0.2718
    103  CB         3.7330   38.7650   32.0590 C.3   193  MET193      0.0401
    104  CG         4.3110   40.1530   32.1680 C.3   193  MET193      0.0596
    105  SD         2.9650   41.3840   32.0980 S.3   193  MET193     -0.1393
    106  CE         3.7540   42.7750   32.6560 C.3   193  MET193      0.0692
    107  N          3.4780   35.8160   33.0490 N.am  194  THR194     -0.1939
    108  CA         2.6970   34.5940   32.9840 C.3   194  THR194      0.2028
    109  C          1.2510   34.9990   32.7090 C.2   194  THR194      0.2642
    110  O          0.8740   36.1550   32.8940 O.2   194  THR194     -0.2714
    111  CB         2.7080   33.8450   34.3260 C.3   194  THR194      0.1808
    112  OG1        2.1140   34.6750   35.3360 O.3   194  THR194     -0.2208
    113  CG2        4.1500   33.5200   34.7360 C.3   194  THR194      0.0379
    114  N          0.4550   34.0450   32.2590 N.am  195  LEU195     -0.1977
    115  CA        -0.9660   34.3130   32.0360 C.3   195  LEU195      0.1596
    116  C         -1.5710   34.8830   33.3430 C.2   195  LEU195      0.2287
    117  O         -2.2990   35.8930   33.3450 O.2   195  LEU195     -0.2864
    118  CB        -1.6430   33.0070   31.6610 C.3   195  LEU195      0.0297
    119  CG        -3.1600   33.0620   31.6220 C.3   195  LEU195      0.0022
    120  CD1       -3.5780   34.2340   30.7100 C.3   195  LEU195      0.0001
    121  CD2       -3.6930   31.7210   31.0980 C.3   195  LEU195      0.0001
    122  N         -0.8110   38.5690   33.9330 N.3   198  VAL198     -0.1245
    123  CA        -1.5110   39.5290   33.0940 C.3   198  VAL198      0.1561
    124  C         -2.9500   39.6580   33.5420 C.2   198  VAL198      0.2260
    125  O         -3.4780   40.7600   33.6440 O.2   198  VAL198     -0.2867
    126  CB        -1.4550   39.1780   31.5960 C.3   198  VAL198      0.0252
    127  CG1       -2.3440   40.1800   30.8130 C.3   198  VAL198      0.0019
    128  CG2        0.0050   39.2870   31.0820 C.3   198  VAL198      0.0019
@<TRIPOS>BOND
     1     6     5    1
     2     5     2    1
     3    66    67    1
     4    66    65    1
     5     1     2    1
     6    70    69    1
     7     2     3    1
     8    67    68    1
     9    86    85    2
    10    65    62    1
    11    85    84    1
    12    64    63    2
    13    69    68    2
    14    69    71    1
    15     3     4    2
    16     3     7   am
    17    63    62    1
    18    62    61    1
    19     7     8    1
    20    30    29    1
    21    84    87    1
    22    84    83    1
    23    29    28    1
    24    87    88    1
    25    11     8    1
    26    83    74   am
    27    61    52   am
    28    72    73    1
    29     8     9    1
    30    74    73    1
    31    74    75    2
    32    90    89   ar
    33    28    27    1
    34    73    76    1
    35    88    89    1
    36    52    53    2
    37    52    51    1
    38     9    12   am
    39     9    10    2
    40    12    13    1
    41    89    91   ar
    42    36    35    1
    43    50    51    1
    44    17    16    1
    45    16    13    1
    46    27    26    1
    47    51    54    1
    48    13    14    1
    49    76    77    1
    50    26    23    1
    51    54    55    1
    52    35    32    1
    53    77    78    1
    54    18    14   am
    55    18    19    1
    56    31    32    1
    57    31    24   am
    58    14    15    2
    59    55    56    1
    60    22    23    1
    61    22    20   am
    62    23    24    1
    63    32    33    1
    64    56    57    1
    65    24    25    2
    66    78    79    1
    67    19    20    1
    68    79    80    2
    69    20    21    2
    70    59    58    1
    71    57    58    2
    72    33    37   am
    73    33    34    2
    74    58    60    1
    75    37    38    1
    76    97    96    1
    77    80    82    1
    78    80    81    1
    79    42    41    1
    80    38    41    1
    81    38    39    1
    82    92    93    1
    83    96    98    1
    84    96    93    1
    85    94    93    1
    86    94    95    2
    87    43    39   am
    88    43    44    1
    89    39    40    2
    90    47    49    1
    91    47    44    1
    92    47    48    1
    93    44    45    1
    94    45    46    2
    95   120   119    1
    96   127   126    1
    97   102   101    2
    98   128   126    1
    99   121   119    1
   100    99   100    1
   101   126   123    1
   102   119   118    1
   103   118   115    1
   104   101   100    1
   105   101   107   am
   106   115   114    1
   107   115   116    1
   108   103   100    1
   109   103   104    1
   110   105   104    1
   111   105   106    1
   112   114   109   am
   113   109   110    2
   114   109   108    1
   115   108   107    1
   116   108   111    1
   117   123   124    1
   118   123   122    1
   119   116   117    2
   120   124   125    2
   121   111   113    1
   122   111   112    1
