@<TRIPOS>MOLECULE
tmp/3akcA00.pdb
 191 180 0 0 0
SMALL
GASTEIGER

@<TRIPOS>ATOM
      1  N         -1.0900   38.7490   17.0690 N.3    11  SER11      -0.1202
      2  CA        -1.0870   37.2920   17.2710 C.3    11  SER11       0.2020
      3  C         -0.2500   36.8140   18.4560 C.2    11  SER11       0.2618
      4  O          0.9030   37.2110   18.6150 O.2    11  SER11      -0.2717
      5  CB        -0.5670   36.6030   16.0120 C.3    11  SER11       0.2103
      6  OG        -1.2430   37.1220   14.9000 O.3    11  SER11      -0.2182
      7  N         -0.8220   35.9310   19.2580 N.am   12  ALA12      -0.1979
      8  CA        -0.1410   35.3730   20.4400 C.3    12  ALA12       0.1597
      9  C          0.3030   36.3930   21.5250 C.2    12  ALA12       0.2287
     10  O          1.1470   36.0840   22.3790 O.2    12  ALA12      -0.2864
     11  CB         1.0430   34.4930   19.9890 C.3    12  ALA12       0.0319
     12  N         -4.3890   37.4810   24.1150 N.3    15  LYS15      -0.1231
     13  CA        -5.8040   37.8890   24.1980 C.3    15  LYS15       0.1693
     14  C         -6.8200   36.8460   24.5980 C.2    15  LYS15       0.2592
     15  O         -7.5610   37.0330   25.5530 O.2    15  LYS15      -0.2718
     16  CB        -6.2850   38.4700   22.8720 C.3    15  LYS15       0.0285
     17  CG        -5.4240   39.4950   22.2610 C.3    15  LYS15       0.0035
     18  CD        -6.0430   39.9450   20.9130 C.3    15  LYS15       0.0206
     19  CE        -6.0330   38.8490   19.8540 C.3    15  LYS15       0.1093
     20  NZ        -4.6080   38.5390   19.3940 N.3    15  LYS15      -0.1314
     21  N         -6.8830   35.7490   23.8670 N.am   16  SER16      -0.1952
     22  CA        -7.8950   34.7310   24.2000 C.3    16  SER16       0.1924
     23  C         -7.7550   34.1490   25.6030 C.2    16  SER16       0.2314
     24  O         -8.7540   33.9860   26.3180 O.2    16  SER16      -0.2863
     25  CB        -7.8650   33.6030   23.1480 C.3    16  SER16       0.2116
     26  OG        -7.8210   34.0890   21.8000 O.3    16  SER16      -0.2180
     27  N        -14.6120   35.7950   21.3470 N.3    32  SER32      -0.1202
     28  CA       -13.4060   35.7910   20.5340 C.3    32  SER32       0.2020
     29  C        -13.7580   36.1400   19.1000 C.2    32  SER32       0.2619
     30  O        -14.1770   35.2810   18.2960 O.2    32  SER32      -0.2717
     31  CB       -12.7510   34.4240   20.5990 C.3    32  SER32       0.2103
     32  OG       -11.6030   34.4280   19.7930 O.3    32  SER32      -0.2182
     33  N        -13.5960   37.4070   18.7560 N.am   33  SER33      -0.1937
     34  CA       -13.9530   37.8430   17.4290 C.3    33  SER33       0.2055
     35  C        -13.1310   37.1270   16.3480 C.2    33  SER33       0.2644
     36  O        -13.6370   36.8350   15.2700 O.2    33  SER33      -0.2714
     37  CB       -13.8060   39.3790   17.3300 C.3    33  SER33       0.2130
     38  OG       -12.4420   39.8170   17.4460 O.3    33  SER33      -0.2179
     39  N        -11.8780   36.8010   16.6340 N.am   34  GLY34      -0.1939
     40  CA       -11.0930   36.1510   15.6040 C.3    34  GLY34       0.2014
     41  C        -11.6000   34.7790   15.2310 C.2    34  GLY34       0.2638
     42  O        -11.3070   34.2820   14.1360 O.2    34  GLY34      -0.2714
     43  N        -12.3170   34.1280   16.1480 N.am   35  LEU35      -0.1977
     44  CA       -12.8250   32.8150   15.8340 C.3    35  LEU35       0.1596
     45  C        -13.8320   32.9580   14.6950 C.2    35  LEU35       0.2287
     46  O        -13.9240   32.0920   13.8320 O.2    35  LEU35      -0.2864
     47  CB       -13.4970   32.1730   17.0490 C.3    35  LEU35       0.0297
     48  CG       -12.9560   30.9640   17.8050 C.3    35  LEU35       0.0022
     49  CD1      -14.1610   30.2970   18.4800 C.3    35  LEU35       0.0001
     50  CD2      -12.2460   29.9580   16.8980 C.3    35  LEU35       0.0001
     51  N        -13.7150   35.2390   12.2890 N.3    37  TYR37      -0.1227
     52  CA       -12.9220   35.4750   11.0740 C.3    37  TYR37       0.1736
     53  C        -12.3120   34.1520   10.5940 C.2    37  TYR37       0.2595
     54  O        -12.3340   33.8410    9.3950 O.2    37  TYR37      -0.2718
     55  CB       -11.8300   36.5160   11.3420 C.3    37  TYR37       0.0548
     56  CG       -12.3940   37.9390   11.3470 C.ar   37  TYR37      -0.0200
     57  CD1      -12.7270   38.5870   10.1490 C.ar   37  TYR37      -0.0009
     58  CD2      -12.5920   38.6330   12.5450 C.ar   37  TYR37      -0.0009
     59  CE1      -13.2470   39.8680   10.1370 C.ar   37  TYR37       0.0417
     60  CE2      -13.0890   39.9310   12.5430 C.ar   37  TYR37       0.0417
     61  CZ       -13.4190   40.5450   11.3620 C.ar   37  TYR37       0.1957
     62  OH       -13.8910   41.8330   11.3640 O.3    37  TYR37      -0.2866
     63  N        -11.8010   33.3580   11.5270 N.am   38  ARG38      -0.1980
     64  CA       -11.2300   32.0730   11.1710 C.3    38  ARG38       0.1597
     65  C        -12.2910   31.1720   10.5440 C.2    38  ARG38       0.2287
     66  O        -12.0150   30.4410    9.5930 O.2    38  ARG38      -0.2864
     67  CB       -10.6270   31.4070   12.3930 C.3    38  ARG38       0.0334
     68  CG        -9.3550   32.0910   12.8490 C.3    38  ARG38       0.0492
     69  CD        -8.8770   31.5230   14.1610 C.3    38  ARG38       0.2205
     70  NE        -7.5740   32.0870   14.5300 N.pl3  38  ARG38      -0.0865
     71  CZ        -6.4100   31.6830   14.0360 C.cat  38  ARG38       0.5346
     72  NH1       -6.3750   30.6760   13.1580 N.pl3  38  ARG38       0.1354
     73  NH2       -5.2820   32.3180   14.3760 N.pl3  38  ARG38       0.1354
     74  N         -7.7410   26.6050   14.0900 N.3    89  HIS89      -0.1241
     75  CA        -6.4190   27.0640   14.4760 C.3    89  HIS89       0.1621
     76  C         -5.2670   26.2950   13.8430 C.2    89  HIS89       0.2264
     77  O         -4.3120   25.8900   14.5100 O.2    89  HIS89      -0.2867
     78  CB        -6.3170   27.0690   16.0050 C.3    89  HIS89       0.0745
     79  CG        -7.2030   28.0860   16.6510 C.ar   89  HIS89       0.0817
     80  ND1       -6.8930   29.4290   16.6770 N.ar   89  HIS89      -0.2268
     81  CD2       -8.4170   27.9670   17.2390 C.ar   89  HIS89       0.1154
     82  CE1       -7.8790   30.0970   17.2510 C.ar   89  HIS89       0.1986
     83  NE2       -8.8170   29.2340   17.6030 N.ar   89  HIS89      -0.2212
     84  N         -6.3980   33.6150    6.6320 N.3    97  VAL97      -0.1231
     85  CA        -7.4490   34.4240    7.2990 C.3    97  VAL97       0.1692
     86  C         -7.4000   35.9380    7.0700 C.2    97  VAL97       0.2592
     87  O         -8.4460   36.5960    6.9250 O.2    97  VAL97      -0.2718
     88  CB        -7.5250   34.0740    8.8410 C.3    97  VAL97       0.0266
     89  CG1       -6.2550   34.5150    9.5760 C.3    97  VAL97       0.0020
     90  CG2       -8.7770   34.7080    9.4600 C.3    97  VAL97       0.0020
     91  N         -6.2080   36.5290    7.0080 N.am   98  SER98      -0.1952
     92  CA        -6.1200   37.9820    6.7900 C.3    98  SER98       0.1924
     93  C         -6.7560   38.4500    5.5050 C.2    98  SER98       0.2314
     94  O         -7.3350   39.5360    5.4700 O.2    98  SER98      -0.2863
     95  CB        -4.6570   38.4520    6.7940 C.3    98  SER98       0.2116
     96  OG        -4.0160   38.0500    7.9890 O.3    98  SER98      -0.2180
     97  N        -10.4270   38.3830    6.1170 N.3   101  ALA101     -0.1245
     98  CA       -10.7770   39.4130    7.0970 C.3   101  ALA101      0.1562
     99  C        -10.7510   40.8510    6.5300 C.2   101  ALA101      0.2260
    100  O        -11.3840   41.7590    7.0780 O.2   101  ALA101     -0.2867
    101  CB        -9.8600   39.2860    8.3300 C.3   101  ALA101      0.0290
    102  N        -16.2040   41.6940    7.6080 N.3   107  ARG107     -0.1245
    103  CA       -16.0760   42.4100    8.8810 C.3   107  ARG107      0.1563
    104  C        -17.4420   42.8380    9.3650 C.2   107  ARG107      0.2260
    105  O        -17.7420   42.7560   10.5490 O.2   107  ARG107     -0.2867
    106  CB       -15.1720   43.6390    8.7360 C.3   107  ARG107      0.0307
    107  CG       -13.7550   43.3080    8.2510 C.3   107  ARG107      0.0489
    108  CD       -12.8090   44.4760    8.5270 C.3   107  ARG107      0.2205
    109  NE       -12.4620   44.5350    9.9510 N.pl3 107  ARG107     -0.0865
    110  CZ       -11.5980   43.7100   10.5440 C.cat 107  ARG107      0.5346
    111  NH1      -10.9650   42.7590    9.8550 N.pl3 107  ARG107      0.1354
    112  NH2      -11.4250   43.7840   11.8860 N.pl3 107  ARG107      0.1354
    113  N        -12.4630   40.1010   22.7120 N.3   124  GLU124     -0.1231
    114  CA       -11.0760   40.2200   22.2500 C.3   124  GLU124      0.1699
    115  C        -10.9550   40.1700   20.7260 C.2   124  GLU124      0.2593
    116  O        -11.7750   39.5570   20.0180 O.2   124  GLU124     -0.2718
    117  CB       -10.1860   39.1620   22.8920 C.3   124  GLU124      0.0402
    118  CG       -10.6990   37.7200   22.7530 C.3   124  GLU124      0.1161
    119  CD        -9.9400   36.8880   21.7210 C.2   124  GLU124      0.3649
    120  OE1       -9.1880   37.4590   20.8880 O.co2 124  GLU124     -0.2457
    121  OE2      -10.1280   35.6430   21.7580 O.co2 124  GLU124     -0.2457
    122  N         -9.9530   40.8610   20.2190 N.am  125  GLY125     -0.1942
    123  CA        -9.7730   40.8740   18.7690 C.3   125  GLY125      0.2014
    124  C         -8.6610   41.8240   18.3440 C.2   125  GLY125      0.2639
    125  O         -7.6390   41.8870   19.0400 O.2   125  GLY125     -0.2714
    126  N         -8.8730   42.5220   17.2160 N.am  126  ARG126     -0.1963
    127  CA        -7.9460   43.5360   16.7120 C.3   126  ARG126      0.1729
    128  C         -8.5390   44.9190   16.8890 C.2   126  ARG126      0.2616
    129  O         -7.8330   45.8560   17.2680 O.2   126  ARG126     -0.2715
    130  CB        -7.6010   43.3560   15.2180 C.3   126  ARG126      0.0348
    131  CG        -6.8340   42.0780   14.8940 C.3   126  ARG126      0.0492
    132  CD        -5.5690   41.9520   15.7250 C.3   126  ARG126      0.2205
    133  NE        -4.8340   40.7450   15.3580 N.pl3 126  ARG126     -0.0865
    134  CZ        -5.1450   39.5310   15.7840 C.cat 126  ARG126      0.5346
    135  NH1       -6.2030   39.3340   16.5810 N.pl3 126  ARG126      0.1354
    136  NH2       -4.3390   38.5100   15.4850 N.pl3 126  ARG126      0.1354
    137  N         -9.8320   45.0460   16.6190 N.am  127  ASP127     -0.1957
    138  CA       -10.5100   46.3310   16.6780 C.3   127  ASP127      0.1840
    139  C        -11.7140   46.3780   17.5790 C.2   127  ASP127      0.2621
    140  O        -12.6290   47.1570   17.3430 O.2   127  ASP127     -0.2715
    141  CB       -10.9060   46.7940   15.2450 C.3   127  ASP127      0.1450
    142  CG       -11.8370   45.7950   14.5060 C.2   127  ASP127      0.3671
    143  OD1      -12.1320   44.6950   15.0370 O.co2 127  ASP127     -0.2456
    144  OD2      -12.2700   46.1190   13.3670 O.co2 127  ASP127     -0.2456
    145  N        -11.7210   45.5510   18.6170 N.am  128  MET128     -0.1977
    146  CA       -12.8450   45.6050   19.5370 C.3   128  MET128      0.1605
    147  C        -12.9930   46.9790   20.2100 C.2   128  MET128      0.2287
    148  O        -14.1010   47.5180   20.2980 O.2   128  MET128     -0.2864
    149  CB       -12.7190   44.5280   20.6290 C.3   128  MET128      0.0413
    150  CG       -12.7910   43.1230   20.1490 C.3   128  MET128      0.0598
    151  SD       -14.3450   42.7210   19.2550 S.3   128  MET128     -0.1393
    152  CE       -13.8410   43.0290   17.5620 C.3   128  MET128      0.0692
    153  N          3.3170   30.7390   20.2080 N.3   153  ARG153     -0.1245
    154  CA         2.5200   30.1440   19.1510 C.3   153  ARG153      0.1563
    155  C          3.0890   28.8300   18.6220 C.2   153  ARG153      0.2260
    156  O          2.3360   27.9380   18.2460 O.2   153  ARG153     -0.2867
    157  CB         2.3350   31.1500   18.0180 C.3   153  ARG153      0.0307
    158  CG         1.3260   30.7270   16.9400 C.3   153  ARG153      0.0489
    159  CD         0.0380   30.1000   17.4970 C.3   153  ARG153      0.2205
    160  NE        -0.6530   30.8290   18.5800 N.pl3 153  ARG153     -0.0865
    161  CZ        -1.3780   31.9340   18.4360 C.cat 153  ARG153      0.5346
    162  NH1       -1.5290   32.5110   17.2400 N.pl3 153  ARG153      0.1354
    163  NH2       -2.0020   32.4410   19.5120 N.pl3 153  ARG153      0.1354
    164  N          1.3540   37.8430    8.9810 N.3   171  ARG171     -0.1245
    165  CA        -0.0510   38.0140    9.3370 C.3   171  ARG171      0.1563
    166  C         -0.2970   39.3330   10.0480 C.2   171  ARG171      0.2260
    167  O         -1.2100   40.0760    9.6970 O.2   171  ARG171     -0.2867
    168  CB        -0.5400   36.8490   10.1980 C.3   171  ARG171      0.0307
    169  CG        -2.0190   36.9790   10.5580 C.3   171  ARG171      0.0489
    170  CD        -2.6870   35.6210   10.7810 C.3   171  ARG171      0.2205
    171  NE        -2.2050   34.8360   11.9250 N.pl3 171  ARG171     -0.0865
    172  CZ        -2.7530   34.8670   13.1460 C.cat 171  ARG171      0.5346
    173  NH1       -2.2530   34.0980   14.1210 N.pl3 171  ARG171      0.1354
    174  NH2       -3.7890   35.6730   13.3990 N.pl3 171  ARG171      0.1354
    175  N         -2.6100   42.5140    8.8280 N.3   175  ASP175     -0.1239
    176  CA        -3.7130   42.9280    9.6910 C.3   175  ASP175      0.1674
    177  C         -3.5300   44.3690   10.1580 C.2   175  ASP175      0.2266
    178  O         -4.2680   44.8550   11.0130 O.2   175  ASP175     -0.2867
    179  CB        -3.7810   42.0510   10.9600 C.3   175  ASP175      0.1410
    180  CG        -4.1420   40.6050   10.6840 C.2   175  ASP175      0.3668
    181  OD1       -4.7030   40.2710    9.6130 O.co2 175  ASP175     -0.2456
    182  OD2       -3.8670   39.7810   11.5880 O.co2 175  ASP175     -0.2456
    183  N         -6.6690   47.1190   10.6190 N.3   178  GLN178     -0.1245
    184  CA        -7.6640   46.9700   11.6810 C.3   178  GLN178      0.1566
    185  C         -7.0450   46.8490   13.0650 C.2   178  GLN178      0.2260
    186  O         -7.7830   46.6560   14.0460 O.2   178  GLN178     -0.2867
    187  CB        -8.5110   45.7030   11.4290 C.3   178  GLN178      0.0367
    188  CG        -7.6720   44.4100   11.5040 C.3   178  GLN178      0.0905
    189  CD        -7.2360   43.8960   10.1310 C.2   178  GLN178      0.2608
    190  OE1       -6.7760   44.6580    9.2910 O.2   178  GLN178     -0.2717
    191  NE2       -7.3900   42.5800    9.9070 N.am  178  GLN178     -0.0878
@<TRIPOS>BOND
     1    94    93    2
     2    93    92    1
     3    97    98    1
     4    99   100    2
     5    99    98    1
     6    84    85    1
     7    92    95    1
     8    92    91    1
     9    95    96    1
    10    87    86    2
    11    91    86   am
    12    86    85    1
    13    98   101    1
    14    85    88    1
    15   102   103    1
    16   107   108    1
    17   107   106    1
    18   108   109    1
    19   106   103    1
    20   175   176    1
    21    88    90    1
    22    88    89    1
    23   103   104    1
    24   164   165    1
    25   190   189    2
    26   165   166    1
    27   165   168    1
    28   104   105    2
    29    54    53    2
    30    66    65    2
    31   181   180   ar
    32   176   177    1
    33   176   179    1
    34   167   166    2
    35   111   110    1
    36   191   189   am
    37   109   110    2
    38   189   188    1
    39    59    57   ar
    40    59    61   ar
    41    57    56   ar
    42   177   178    2
    43   168   169    1
    44    65    64    1
    45   110   112    1
    46   169   170    1
    47    53    52    1
    48    53    63   am
    49   183   184    1
    50   180   179    1
    51   180   182   ar
    52   170   171    1
    53    52    55    1
    54    52    51    1
    55    64    63    1
    56    64    67    1
    57    55    56    1
    58    56    58   ar
    59    61    62    1
    60    61    60   ar
    61   187   188    1
    62   187   184    1
    63   184   185    1
    64   171   172    2
    65    67    68    1
    66    60    58   ar
    67    68    69    1
    68   185   186    2
    69   172   174    1
    70   172   173    1
    71    72    71    1
    72   144   142   ar
    73    46    45    2
    74    76    75    1
    75    76    77    2
    76    71    73    1
    77    71    70    2
    78    74    75    1
    79    42    41    2
    80    69    70    1
    81    75    78    1
    82   142   143   ar
    83   142   141    1
    84    45    44    1
    85   131   130    1
    86   131   132    1
    87     6     5    1
    88   130   127    1
    89    41    40    1
    90    41    43   am
    91   141   138    1
    92    36    35    2
    93   133   132    1
    94   133   134    2
    95   136   134    1
    96    40    39    1
    97   134   135    1
    98    44    43    1
    99    44    47    1
   100    78    79    1
   101     5     2    1
   102    35    39   am
   103    35    34    1
   104   137   138    1
   105   137   128   am
   106    79    80   ar
   107    79    81   ar
   108    80    82   ar
   109   138   139    1
   110   127   128    1
   111   127   126    1
   112   128   129    2
   113    50    48    1
   114   158   159    1
   115   158   157    1
   116    47    48    1
   117     1     2    1
   118   126   124   am
   119    81    83   ar
   120   162   161    1
   121    82    83   ar
   122     2     3    1
   123    37    34    1
   124    37    38    1
   125   140   139    2
   126    34    33    1
   127   159   160    1
   128   152   151    1
   129   139   145   am
   130    48    49    1
   131   157   154    1
   132   156   155    2
   133    30    29    2
   134   124   123    1
   135   124   125    2
   136   161   160    2
   137   161   163    1
   138     3     4    2
   139     3     7   am
   140   145   146    1
   141   155   154    1
   142    33    29   am
   143   123   122    1
   144    29    28    1
   145   154   153    1
   146   151   150    1
   147     7     8    1
   148    20    19    1
   149   146   147    1
   150   146   149    1
   151    32    31    1
   152    19    18    1
   153    11     8    1
   154   116   115    2
   155   150   149    1
   156   147   148    2
   157   122   115   am
   158     8     9    1
   159    28    31    1
   160    28    27    1
   161   115   114    1
   162   120   119   ar
   163    18    17    1
   164     9    10    2
   165   119   121   ar
   166   119   118    1
   167    26    25    1
   168   114   113    1
   169   114   117    1
   170    17    16    1
   171   118   117    1
   172    16    13    1
   173    25    22    1
   174    21    22    1
   175    21    14   am
   176    12    13    1
   177    13    14    1
   178    22    23    1
   179    14    15    2
   180    23    24    2
