@<TRIPOS>MOLECULE
tmp/3akeA00.pdb
 155 147 0 0 0
SMALL
GASTEIGER

@<TRIPOS>ATOM
      1  N         34.0960   17.9500    1.9370 N.3    11  SER11      -0.1202
      2  CA        32.8730   17.1580    1.7330 C.3    11  SER11       0.2020
      3  C         31.9420   17.7130    0.6660 C.2    11  SER11       0.2618
      4  O         31.8010   18.9430    0.5220 O.2    11  SER11      -0.2717
      5  CB        32.1160   16.9930    3.0450 C.3    11  SER11       0.2103
      6  OG        31.7400   18.2520    3.5340 O.3    11  SER11      -0.2182
      7  N         31.3740   16.8110   -0.1100 N.am   12  ALA12      -0.1979
      8  CA        30.4540   17.1490   -1.1920 C.3    12  ALA12       0.1597
      9  C         31.0500   18.1100   -2.2380 C.2    12  ALA12       0.2287
     10  O         30.3270   18.8190   -2.9600 O.2    12  ALA12      -0.2864
     11  CB        29.1250   17.7270   -0.5980 C.3    12  ALA12       0.0319
     12  N         34.5470   15.2850   -5.4100 N.3    15  LYS15      -0.1231
     13  CA        35.6720   14.3800   -5.6390 C.3    15  LYS15       0.1693
     14  C         35.2840   12.9190   -5.7860 C.2    15  LYS15       0.2592
     15  O         35.9320   12.2100   -6.5380 O.2    15  LYS15      -0.2718
     16  CB        36.7980   14.5670   -4.6070 C.3    15  LYS15       0.0285
     17  CG        36.6560   13.9150   -3.2250 C.3    15  LYS15       0.0035
     18  CD        35.9360   14.8000   -2.2900 C.3    15  LYS15       0.0206
     19  CE        35.8400   14.1250   -0.9160 C.3    15  LYS15       0.1093
     20  NZ        34.9250   12.9210   -1.0780 N.3    15  LYS15      -0.1314
     21  N         34.2190   12.4850   -5.1240 N.am   16  SER16      -0.1952
     22  CA        33.8550   11.0690   -5.2570 C.3    16  SER16       0.1924
     23  C         33.3340   10.7080   -6.6360 C.2    16  SER16       0.2314
     24  O         33.8690    9.7790   -7.2770 O.2    16  SER16      -0.2863
     25  CB        32.8430   10.6880   -4.1660 C.3    16  SER16       0.2116
     26  OG        33.4390   10.8710   -2.8840 O.3    16  SER16      -0.2180
     27  N         37.7850    4.9580   -2.5620 N.3    32  SER32      -0.1202
     28  CA        37.1630    6.0110   -1.7720 C.3    32  SER32       0.2020
     29  C         37.6640    5.9640   -0.3120 C.2    32  SER32       0.2619
     30  O         37.1670    5.1780    0.5240 O.2    32  SER32      -0.2717
     31  CB        35.6590    5.8500   -1.7560 C.3    32  SER32       0.2103
     32  OG        35.1010    6.8930   -0.9510 O.3    32  SER32      -0.2182
     33  N         38.6200    6.7850    0.0520 N.am   33  SER33      -0.1937
     34  CA        39.1430    6.7640    1.4160 C.3    33  SER33       0.2055
     35  C         38.0660    7.0570    2.4350 C.2    33  SER33       0.2643
     36  O         38.0210    6.4620    3.5250 O.2    33  SER33      -0.2714
     37  CB        40.3560    7.6960    1.6020 C.3    33  SER33       0.2130
     38  OG        40.0170    9.0540    1.3620 O.3    33  SER33      -0.2179
     39  N         37.1490    7.9680    2.0870 N.am   34  GLY34      -0.1954
     40  CA        36.0920    8.2810    3.0200 C.3    34  GLY34       0.1869
     41  C         35.1740    7.1410    3.3600 C.2    34  GLY34       0.2309
     42  O         34.6320    7.1440    4.4460 O.2    34  GLY34      -0.2863
     43  N         36.6120    5.5250    6.3790 N.3    37  TYR37      -0.1227
     44  CA        36.3610    6.2590    7.6260 C.3    37  TYR37       0.1736
     45  C         34.8840    6.0900    8.0210 C.2    37  TYR37       0.2595
     46  O         34.5820    5.9220    9.2200 O.2    37  TYR37      -0.2718
     47  CB        36.6540    7.7800    7.4220 C.3    37  TYR37       0.0548
     48  CG        38.1210    8.0420    7.3990 C.ar   37  TYR37      -0.0200
     49  CD1       38.8470    8.0180    8.5810 C.ar   37  TYR37      -0.0009
     50  CD2       38.7850    8.3360    6.1970 C.ar   37  TYR37      -0.0009
     51  CE1       40.2320    8.2960    8.5750 C.ar   37  TYR37       0.0417
     52  CE2       40.1980    8.6070    6.1860 C.ar   37  TYR37       0.0417
     53  CZ        40.8810    8.5780    7.3790 C.ar   37  TYR37       0.1957
     54  OH        42.2450    8.7680    7.4430 O.3    37  TYR37      -0.2866
     55  N         33.9760    6.1720    7.0260 N.am   38  ARG38      -0.1980
     56  CA        32.5480    5.9590    7.3070 C.3    38  ARG38       0.1597
     57  C         32.3150    4.5710    7.8970 C.2    38  ARG38       0.2287
     58  O         31.5500    4.4400    8.8690 O.2    38  ARG38      -0.2864
     59  CB        31.7350    6.1630    6.0380 C.3    38  ARG38       0.0334
     60  CG        31.6090    7.6700    5.6650 C.3    38  ARG38       0.0492
     61  CD        30.8990    7.8100    4.3270 C.3    38  ARG38       0.2205
     62  NE        30.7560    9.2480    3.9960 N.pl3  38  ARG38      -0.0865
     63  CZ        29.8120   10.0050    4.5040 C.cat  38  ARG38       0.5346
     64  NH1       28.8880    9.5240    5.3200 N.pl3  38  ARG38       0.1354
     65  NH2       29.8600   11.3310    4.2830 N.pl3  38  ARG38       0.1354
     66  N         26.1840    6.1500    3.9150 N.3    89  HIS89      -0.1241
     67  CA        25.9150    7.5210    3.4250 C.3    89  HIS89       0.1621
     68  C         24.6180    7.9660    4.0050 C.2    89  HIS89       0.2264
     69  O         23.6320    8.2040    3.3000 O.2    89  HIS89      -0.2867
     70  CB        25.9070    7.4950    1.9250 C.3    89  HIS89       0.0745
     71  CG        27.2200    7.0930    1.3650 C.ar   89  HIS89       0.0817
     72  ND1       27.4380    5.8700    0.7610 N.ar   89  HIS89      -0.2268
     73  CD2       28.4030    7.7450    1.3580 C.ar   89  HIS89       0.1154
     74  CE1       28.7070    5.7960    0.3930 C.ar   89  HIS89       0.1986
     75  NE2       29.3100    6.9210    0.7460 N.ar   89  HIS89      -0.2212
     76  N         31.3000   10.7170   12.0630 N.3    97  VAL97      -0.1231
     77  CA        32.5540   10.2690   11.4510 C.3    97  VAL97       0.1692
     78  C         33.7690   11.0950   11.8360 C.2    97  VAL97       0.2592
     79  O         34.8500   10.5530   12.0300 O.2    97  VAL97      -0.2718
     80  CB        32.3690   10.0660    9.9350 C.3    97  VAL97       0.0266
     81  CG1       31.9920   11.3770    9.2240 C.3    97  VAL97       0.0020
     82  CG2       33.6430    9.4930    9.3110 C.3    97  VAL97       0.0020
     83  N         33.5770   12.3900   12.0960 N.am   98  SER98      -0.1952
     84  CA        34.7010   13.2150   12.5380 C.3    98  SER98       0.1924
     85  C         35.3550   12.7300   13.8330 C.2    98  SER98       0.2314
     86  O         36.5870   12.9000   14.0200 O.2    98  SER98      -0.2863
     87  CB        34.2180   14.7000   12.7380 C.3    98  SER98       0.2116
     88  OG        33.4400   14.8270   13.9030 O.3    98  SER98      -0.2180
     89  N         37.5610    9.9120   12.6220 N.3   101  ALA101     -0.1245
     90  CA        38.5710   10.3130   11.6120 C.3   101  ALA101      0.1562
     91  C         39.7630   11.0540   12.2110 C.2   101  ALA101      0.2260
     92  O         40.8430   11.0130   11.6590 O.2   101  ALA101     -0.2867
     93  CB        37.9300   11.1690   10.4990 C.3   101  ALA101      0.0290
     94  N         43.3500    6.8140   11.1990 N.3   107  ARG107     -0.1245
     95  CA        43.8940    7.2540    9.9310 C.3   107  ARG107      0.1563
     96  C         44.9800    6.2670    9.4760 C.2   107  ARG107      0.2260
     97  O         45.0680    5.9870    8.2800 O.2   107  ARG107     -0.2867
     98  CB        44.4700    8.6730   10.0620 C.3   107  ARG107      0.0307
     99  CG        43.4380    9.6550   10.5730 C.3   107  ARG107      0.0489
    100  CD        43.8550   11.1230   10.3310 C.3   107  ARG107      0.2205
    101  NE        43.8080   11.4140    8.8950 N.pl3 107  ARG107     -0.0865
    102  CZ        42.6840   11.7230    8.2510 C.cat 107  ARG107      0.5346
    103  NH1       42.6980   11.9660    6.9300 N.pl3 107  ARG107      0.1354
    104  NH2       41.5140   11.7670    8.9010 N.pl3 107  ARG107      0.1354
    105  N         40.4970    8.9920   -3.9060 N.3   124  GLU124     -0.1231
    106  CA        39.8650   10.2540   -3.5290 C.3   124  GLU124      0.1699
    107  C         39.7570   10.3710   -2.0280 C.2   124  GLU124      0.2593
    108  O         39.6330    9.3550   -1.3140 O.2   124  GLU124     -0.2718
    109  CB        38.5120   10.4060   -4.1990 C.3   124  GLU124      0.0402
    110  CG        37.5190    9.3670   -3.9340 C.3   124  GLU124      0.1161
    111  CD        36.5130    9.7700   -2.8450 C.2   124  GLU124      0.3649
    112  OE1       36.6860   10.7860   -2.0990 O.co2 124  GLU124     -0.2457
    113  OE2       35.4820    9.0310   -2.7610 O.co2 124  GLU124     -0.2457
    114  N         39.8610   11.5940   -1.5260 N.am  125  GLY125     -0.1942
    115  CA        39.7780   11.8160   -0.1070 C.3   125  GLY125      0.2014
    116  C         40.0150   13.2640    0.2370 C.2   125  GLY125      0.2639
    117  O         39.6370   14.1170   -0.5580 O.2   125  GLY125     -0.2714
    118  N         40.5660   13.5010    1.4090 N.am  126  ARG126     -0.1963
    119  CA        40.9490   14.8180    1.8520 C.3   126  ARG126      0.1729
    120  C         42.4460   15.0210    1.6760 C.2   126  ARG126      0.2616
    121  O         42.8690   16.1340    1.3290 O.2   126  ARG126     -0.2715
    122  CB        40.6460   14.9950    3.3510 C.3   126  ARG126      0.0348
    123  CG        39.1930   14.9920    3.7160 C.3   126  ARG126      0.0492
    124  CD        38.4020   16.1650    3.1010 C.3   126  ARG126      0.2205
    125  NE        37.0040   16.1210    3.5710 N.pl3 126  ARG126     -0.0865
    126  CZ        36.0930   15.2650    3.1160 C.cat 126  ARG126      0.5346
    127  NH1       36.3800   14.4090    2.1680 N.pl3 126  ARG126      0.1354
    128  NH2       34.9150   15.2010    3.6950 N.pl3 126  ARG126      0.1354
    129  N         43.2030   13.9620    1.9370 N.am  127  ASP127     -0.1957
    130  CA        44.6470   14.0160    1.9810 C.3   127  ASP127      0.1840
    131  C         45.3400   12.9230    1.1680 C.2   127  ASP127      0.2621
    132  O         46.4640   12.5170    1.5070 O.2   127  ASP127     -0.2715
    133  CB        45.0910   13.9580    3.4640 C.3   127  ASP127      0.1450
    134  CG        44.6740   12.6580    4.1750 C.2   127  ASP127      0.3671
    135  OD1       43.9020   11.8200    3.6230 O.co2 127  ASP127     -0.2456
    136  OD2       45.1230   12.4690    5.3500 O.co2 127  ASP127     -0.2456
    137  N         44.7120   12.4690    0.0760 N.am  128  MET128     -0.1977
    138  CA        45.3800   11.4670   -0.7550 C.3   128  MET128      0.1605
    139  C         46.6540   12.0250   -1.3620 C.2   128  MET128      0.2287
    140  O         47.6560   11.3160   -1.3980 O.2   128  MET128     -0.2864
    141  CB        44.4360   10.9840   -1.8910 C.3   128  MET128      0.0413
    142  CG        43.1740   10.2520   -1.3630 C.3   128  MET128      0.0598
    143  SD        43.5520    8.7290   -0.3810 S.3   128  MET128     -0.1393
    144  CE        43.4120    9.3410    1.3090 C.3   128  MET128      0.0692
    145  N         24.9740   17.7990   -0.8960 N.3   153  ARG153     -0.1245
    146  CA        24.7510   16.8430    0.1800 C.3   153  ARG153      0.1563
    147  C         23.2560   16.6990    0.4940 C.2   153  ARG153      0.2260
    148  O         22.7790   15.5830    0.7310 O.2   153  ARG153     -0.2867
    149  CB        25.5310   17.3130    1.4110 C.3   153  ARG153      0.0307
    150  CG        25.2770   16.4740    2.6700 C.3   153  ARG153      0.0489
    151  CD        25.6120   14.9610    2.4480 C.3   153  ARG153      0.2205
    152  NE        27.0200   14.6990    2.0930 N.pl3 153  ARG153     -0.0865
    153  CZ        28.0370   14.7380    2.9660 C.cat 153  ARG153      0.5346
    154  NH1       27.8740   15.0410    4.2660 N.pl3 153  ARG153      0.1354
    155  NH2       29.2560   14.4550    2.5180 N.pl3 153  ARG153      0.1354
@<TRIPOS>BOND
     1    24    23    2
     2    23    22    1
     3    15    14    2
     4    14    13    1
     5    14    21   am
     6    13    12    1
     7    13    16    1
     8    22    21    1
     9    22    25    1
    10    16    17    1
    11   109   110    1
    12   109   106    1
    13    25    26    1
    14   110   111    1
    15   105   106    1
    16   106   107    1
    17    17    18    1
    18    10     9    2
    19   111   113   ar
    20   111   112   ar
    21    27    28    1
    22    18    19    1
    23     9     8    1
    24   107   114   am
    25   107   108    2
    26   141   142    1
    27   141   138    1
    28    28    31    1
    29    28    29    1
    30    31    32    1
    31   114   115    1
    32   140   139    2
    33   142   143    1
    34   139   138    1
    35     8    11    1
    36     8     7    1
    37    20    19    1
    38   145   146    1
    39   138   137    1
    40   117   116    2
    41   143   144    1
    42    29    33   am
    43    29    30    2
    44     7     3   am
    45   115   116    1
    46    33    34    1
    47   137   131   am
    48   146   147    1
    49   146   149    1
    50   116   118   am
    51    74    75   ar
    52    74    72   ar
    53   147   148    2
    54     4     3    2
    55     3     2    1
    56    75    73   ar
    57    72    71   ar
    58   131   132    2
    59   131   130    1
    60   121   120    2
    61    73    71   ar
    62    38    37    1
    63    71    70    1
    64   118   119    1
    65   149   150    1
    66    34    37    1
    67    34    35    1
    68   120   119    1
    69   120   129   am
    70     2     1    1
    71     2     5    1
    72   119   122    1
    73    70    67    1
    74   129   130    1
    75   130   133    1
    76    39    35   am
    77    39    40    1
    78   152   151    1
    79   152   153    2
    80   127   126    1
    81    35    36    2
    82   151   150    1
    83   155   153    1
    84   153   154    1
    85    40    41    1
    86     5     6    1
    87   124   125    1
    88   124   123    1
    89   126   125    2
    90   126   128    1
    91    69    68    2
    92   122   123    1
    93    41    42    2
    94    67    66    1
    95    67    68    1
    96   133   134    1
    97   135   134   ar
    98    62    61    1
    99    62    63    2
   100   134   136   ar
   101    65    63    1
   102    61    60    1
   103    63    64    1
   104    60    59    1
   105    59    56    1
   106    52    50   ar
   107    52    53   ar
   108    50    48   ar
   109    43    44    1
   110   103   102    1
   111    55    56    1
   112    55    45   am
   113    56    57    1
   114    53    54    1
   115    53    51   ar
   116    48    47    1
   117    48    49   ar
   118    47    44    1
   119    44    45    1
   120    57    58    2
   121    45    46    2
   122   102   101    2
   123   102   104    1
   124    97    96    2
   125    51    49   ar
   126   101   100    1
   127    81    80    1
   128    82    80    1
   129    96    95    1
   130    95    98    1
   131    95    94    1
   132    80    77    1
   133    98    99    1
   134   100    99    1
   135    93    90    1
   136    77    78    1
   137    77    76    1
   138    90    91    1
   139    90    89    1
   140    92    91    2
   141    78    79    2
   142    78    83   am
   143    83    84    1
   144    84    87    1
   145    84    85    1
   146    87    88    1
   147    85    86    2
