@<TRIPOS>MOLECULE
tmp/3akgA00.pdb
 116 112 0 0 0
SMALL
GASTEIGER

@<TRIPOS>ATOM
      1  N        -16.5940   19.0010  -36.1010 N.3    68  TRP68      -0.1241
      2  CA       -16.2330   17.7110  -35.5400 C.3    68  TRP68       0.1605
      3  C        -14.7240   17.4830  -35.4350 C.2    68  TRP68       0.2264
      4  O        -13.9700   17.8180  -36.3480 O.2    68  TRP68      -0.2867
      5  CB       -16.7770   16.6220  -36.4630 C.3    68  TRP68       0.0550
      6  CG       -18.2360   16.3340  -36.3640 C.ar   68  TRP68       0.0003
      7  CD1      -19.1180   16.7450  -35.4010 C.ar   68  TRP68       0.0946
      8  CD2      -18.9650   15.4970  -37.2530 C.ar   68  TRP68       0.0152
      9  NE1      -20.3680   16.2100  -35.6560 N.ar   68  TRP68      -0.2442
     10  CE2      -20.2910   15.4340  -36.7830 C.ar   68  TRP68       0.0810
     11  CE3      -18.6160   14.7760  -38.4030 C.ar   68  TRP68       0.0012
     12  CZ2      -21.2760   14.6940  -37.4360 C.ar   68  TRP68       0.0191
     13  CZ3      -19.6010   14.0440  -39.0570 C.ar   68  TRP68       0.0001
     14  CH2      -20.9150   14.0160  -38.5720 C.ar   68  TRP68       0.0015
     15  N        -24.4100   17.9470  -44.1870 N.3    92  TRP92      -0.1241
     16  CA       -23.6750   16.6730  -44.3230 C.3    92  TRP92       0.1605
     17  C        -22.5740   16.6490  -45.3960 C.2    92  TRP92       0.2264
     18  O        -21.9470   15.6080  -45.6330 O.2    92  TRP92      -0.2867
     19  CB       -24.6380   15.4850  -44.4790 C.3    92  TRP92       0.0550
     20  CG       -25.5940   15.3620  -43.3230 C.ar   92  TRP92       0.0003
     21  CD1      -26.9080   15.7490  -43.2990 C.ar   92  TRP92       0.0946
     22  CD2      -25.3070   14.8390  -42.0190 C.ar   92  TRP92       0.0152
     23  NE1      -27.4540   15.4940  -42.0620 N.ar   92  TRP92      -0.2442
     24  CE2      -26.4960   14.9350  -41.2580 C.ar   92  TRP92       0.0810
     25  CE3      -24.1620   14.2960  -41.4200 C.ar   92  TRP92       0.0012
     26  CZ2      -26.5730   14.5030  -39.9230 C.ar   92  TRP92       0.0191
     27  CZ3      -24.2410   13.8650  -40.0910 C.ar   92  TRP92       0.0001
     28  CH2      -25.4370   13.9720  -39.3600 C.ar   92  TRP92       0.0015
     29  N        -17.3350   13.4110  -48.7600 N.3   124  PHE124     -0.1241
     30  CA       -17.3460   13.3650  -47.2950 C.3   124  PHE124      0.1605
     31  C        -15.9490   13.0330  -46.7340 C.2   124  PHE124      0.2264
     32  O        -15.3880   11.9820  -47.0380 O.2   124  PHE124     -0.2867
     33  CB       -18.3690   12.2970  -46.8820 C.3   124  PHE124      0.0534
     34  CG       -18.7660   12.3180  -45.4320 C.ar  124  PHE124     -0.0203
     35  CD1      -19.8120   13.1340  -44.9890 C.ar  124  PHE124     -0.0042
     36  CD2      -18.1480   11.4690  -44.5150 C.ar  124  PHE124     -0.0042
     37  CE1      -20.2040   13.1220  -43.6560 C.ar  124  PHE124     -0.0003
     38  CE2      -18.5370   11.4430  -43.1800 C.ar  124  PHE124     -0.0003
     39  CZ       -19.5640   12.2820  -42.7450 C.ar  124  PHE124     -0.0000
     40  N        -13.1540   13.7770  -43.1910 N.3   126  LEU126     -0.1245
     41  CA       -13.0780   14.2050  -41.7950 C.3   126  LEU126      0.1561
     42  C        -11.9080   13.5200  -41.1050 C.2   126  LEU126      0.2260
     43  O        -11.2540   12.6690  -41.7060 O.2   126  LEU126     -0.2867
     44  CB       -14.3770   13.8670  -41.0380 C.3   126  LEU126      0.0270
     45  CG       -14.6320   12.3860  -40.7550 C.3   126  LEU126      0.0019
     46  CD1      -15.6650   12.2260  -39.6350 C.3   126  LEU126      0.0001
     47  CD2      -15.0480   11.6770  -42.0040 C.3   126  LEU126      0.0001
     48  N        -19.1970    4.2760  -45.7740 N.3   151  ASN151     -0.1225
     49  CA       -19.1990    5.6510  -45.2880 C.3   151  ASN151      0.1785
     50  C        -17.8540    6.3310  -45.5600 C.2   151  ASN151      0.2597
     51  O        -17.8020    7.3000  -46.2940 O.2   151  ASN151     -0.2718
     52  CB       -19.5980    5.7390  -43.8090 C.3   151  ASN151      0.1169
     53  CG       -21.1190    5.8300  -43.6030 C.2   151  ASN151      0.2627
     54  OD1      -21.9030    5.1290  -44.2560 O.2   151  ASN151     -0.2716
     55  ND2      -21.5370    6.6960  -42.6790 N.am  151  ASN151     -0.0877
     56  N        -16.7720    5.7910  -44.9920 N.am  152  THR152     -0.1953
     57  CA       -15.4360    6.3660  -45.1460 C.3   152  THR152      0.1897
     58  C        -14.3720    5.2780  -45.1130 C.2   152  THR152      0.2313
     59  O        -14.5290    4.2340  -44.4510 O.2   152  THR152     -0.2863
     60  CB       -15.0720    7.4150  -44.0460 C.3   152  THR152      0.1794
     61  OG1      -15.3410    6.8920  -42.7310 O.3   152  THR152     -0.2208
     62  CG2      -15.7940    8.7420  -44.2470 C.3   152  THR152      0.0378
     63  N        -23.0400    1.2040  -39.6570 N.3   184  TYR184     -0.1241
     64  CA       -22.4430    1.8090  -40.8540 C.3   184  TYR184      0.1605
     65  C        -21.0800    1.2110  -41.0940 C.2   184  TYR184      0.2264
     66  O        -20.4100    0.7670  -40.1510 O.2   184  TYR184     -0.2867
     67  CB       -22.3280    3.3370  -40.7210 C.3   184  TYR184      0.0534
     68  CG       -23.6840    3.9880  -40.6390 C.ar  184  TYR184     -0.0201
     69  CD1      -24.5380    4.0040  -41.7500 C.ar  184  TYR184     -0.0009
     70  CD2      -24.1330    4.5410  -39.4440 C.ar  184  TYR184     -0.0009
     71  CE1      -25.7980    4.5710  -41.6750 C.ar  184  TYR184      0.0417
     72  CE2      -25.4080    5.1220  -39.3550 C.ar  184  TYR184      0.0417
     73  CZ       -26.2260    5.1290  -40.4750 C.ar  184  TYR184      0.1957
     74  OH       -27.4790    5.6920  -40.3960 O.3   184  TYR184     -0.2866
     75  N        -17.6270    1.8860  -41.5870 N.3   186  VAL186     -0.1245
     76  CA       -16.7790    3.0310  -41.2580 C.3   186  VAL186      0.1561
     77  C        -15.3540    2.6440  -40.8910 C.2   186  VAL186      0.2260
     78  O        -15.1440    1.7490  -40.0670 O.2   186  VAL186     -0.2867
     79  CB       -17.3690    3.8230  -40.0510 C.3   186  VAL186      0.0252
     80  CG1      -16.4180    4.9250  -39.6040 C.3   186  VAL186      0.0019
     81  CG2      -18.7400    4.4090  -40.3780 C.3   186  VAL186      0.0019
     82  N        -12.6520    5.4920  -39.4750 N.3   188  GLU188     -0.1245
     83  CA       -12.4580    6.9480  -39.2260 C.3   188  GLU188      0.1567
     84  C        -11.4380    7.1680  -38.1120 C.2   188  GLU188      0.2260
     85  O        -10.8460    6.2040  -37.5930 O.2   188  GLU188     -0.2867
     86  CB       -13.7990    7.6400  -38.9150 C.3   188  GLU188      0.0388
     87  CG       -14.5110    7.1510  -37.6290 C.3   188  GLU188      0.1160
     88  CD       -15.9160    7.7590  -37.4410 C.2   188  GLU188      0.3649
     89  OE1      -16.4240    8.4260  -38.3660 O.co2 188  GLU188     -0.2457
     90  OE2      -16.5250    7.5700  -36.3650 O.co2 188  GLU188     -0.2457
     91  N        -17.1140    0.9810  -37.2650 N.3   206  SER206     -0.1202
     92  CA       -18.5530    0.8040  -37.0090 C.3   206  SER206      0.2020
     93  C        -19.2080    2.1290  -36.5480 C.2   206  SER206      0.2619
     94  O        -18.5340    3.1680  -36.4500 O.2   206  SER206     -0.2717
     95  CB       -18.8020   -0.3630  -36.0080 C.3   206  SER206      0.2103
     96  OG       -18.4700   -1.6080  -36.6340 O.3   206  SER206     -0.2182
     97  N        -20.5190    2.0910  -36.2930 N.am  207  ALA207     -0.1965
     98  CA       -21.2580    3.2330  -35.7340 C.3   207  ALA207      0.1728
     99  C        -20.7850    3.6610  -34.3540 C.2   207  ALA207      0.2616
    100  O        -20.1500    2.8800  -33.6250 O.2   207  ALA207     -0.2715
    101  CB       -22.7740    2.9100  -35.6940 C.3   207  ALA207      0.0334
    102  N        -21.1430    4.8910  -33.9760 N.am  208  THR208     -0.1951
    103  CA       -20.7190    5.4790  -32.7110 C.3   208  THR208      0.1897
    104  C        -21.5760    5.0750  -31.4920 C.2   208  THR208      0.2313
    105  O        -21.7000    5.8410  -30.5320 O.2   208  THR208     -0.2863
    106  CB       -20.6630    7.0130  -32.8070 C.3   208  THR208      0.1794
    107  OG1      -21.9920    7.5240  -33.0200 O.3   208  THR208     -0.2208
    108  CG2      -19.7480    7.4500  -33.9430 C.3   208  THR208      0.0378
    109  N        -25.7490   10.0700  -32.7370 N.3   281  LEU281     -0.1245
    110  CA       -25.1260   11.3910  -32.9230 C.3   281  LEU281      0.1561
    111  C        -25.8010   12.4910  -32.1060 C.2   281  LEU281      0.2260
    112  O        -25.1950   13.5410  -31.8480 O.2   281  LEU281     -0.2867
    113  CB       -25.0430   11.7900  -34.3960 C.3   281  LEU281      0.0270
    114  CG       -24.0280   11.0730  -35.3080 C.3   281  LEU281      0.0019
    115  CD1      -24.0130   11.7810  -36.6690 C.3   281  LEU281      0.0001
    116  CD2      -22.6020   10.9990  -34.7230 C.3   281  LEU281      0.0001
@<TRIPOS>BOND
     1    29    30    1
     2    30    33    1
     3    30    31    1
     4    32    31    2
     5    33    34    1
     6    51    50    2
     7    48    49    1
     8    18    17    2
     9    50    49    1
    10    50    56   am
    11    34    35   ar
    12    34    36   ar
    13    17    16    1
    14    49    52    1
    15    57    58    1
    16    57    56    1
    17    57    60    1
    18    58    59    2
    19    35    37   ar
    20    36    38   ar
    21    19    16    1
    22    19    20    1
    23    16    15    1
    24    54    53    2
    25    62    60    1
    26    60    61    1
    27    52    53    1
    28    37    39   ar
    29    53    55   am
    30    20    21   ar
    31    20    22   ar
    32    21    23   ar
    33    40    41    1
    34    38    39   ar
    35    23    24   ar
    36    22    25   ar
    37    22    24   ar
    38    47    45    1
    39    41    42    1
    40    41    44    1
    41    69    71   ar
    42    69    68   ar
    43    43    42    2
    44    71    73   ar
    45    75    76    1
    46    25    27   ar
    47    24    26   ar
    48    76    77    1
    49    76    79    1
    50    65    64    1
    51    65    66    2
    52    44    45    1
    53    77    78    2
    54    64    67    1
    55    64    63    1
    56    45    46    1
    57    67    68    1
    58    68    70   ar
    59    73    74    1
    60    73    72   ar
    61    81    79    1
    62    27    28   ar
    63    79    80    1
    64    26    28   ar
    65    82    83    1
    66    70    72   ar
    67    83    86    1
    68    83    84    1
    69    13    14   ar
    70    13    11   ar
    71    86    87    1
    72    14    12   ar
    73    11     8   ar
    74    89    88   ar
    75    84    85    2
    76    87    88    1
    77    88    90   ar
    78    12    10   ar
    79    91    92    1
    80     8    10   ar
    81     8     6   ar
    82    92    93    1
    83    92    95    1
    84    10     9   ar
    85   115   114    1
    86    96    95    1
    87    93    94    2
    88    93    97   am
    89     5     6    1
    90     5     2    1
    91     6     7   ar
    92     4     3    2
    93    97    98    1
    94     1     2    1
    95    98   101    1
    96    98    99    1
    97     9     7   ar
    98     2     3    1
    99   114   116    1
   100   114   113    1
   101   113   110    1
   102    99   102   am
   103    99   100    2
   104   102   103    1
   105   108   106    1
   106   107   106    1
   107   110   109    1
   108   110   111    1
   109   106   103    1
   110   103   104    1
   111   111   112    2
   112   104   105    2
