@<TRIPOS>MOLECULE
tmp/3akgA02.pdb
 97 95 0 0 0
SMALL
GASTEIGER

@<TRIPOS>ATOM
      1  N         12.7110  -10.3070   -7.4460 N.3   320  ASN320     -0.1225
      2  CA        13.7570  -11.1930   -7.9700 C.3   320  ASN320      0.1785
      3  C         13.5610  -11.6760   -9.4090 C.2   320  ASN320      0.2597
      4  O         14.4770  -12.2530  -10.0050 O.2   320  ASN320     -0.2718
      5  CB        14.0860  -12.3710   -7.0200 C.3   320  ASN320      0.1169
      6  CG        12.8540  -13.0840   -6.4620 C.2   320  ASN320      0.2627
      7  OD1       11.7330  -12.5960   -6.5520 O.2   320  ASN320     -0.2716
      8  ND2       13.0840  -14.2520   -5.8430 N.am  320  ASN320     -0.0877
      9  N         12.3730  -11.4530   -9.9600 N.am  321  TYR321     -0.1976
     10  CA        12.1040  -11.7500  -11.3670 C.3   321  TYR321      0.1639
     11  C         11.4200  -10.5410  -11.9720 C.2   321  TYR321      0.2290
     12  O         10.1940  -10.5170  -12.1250 O.2   321  TYR321     -0.2864
     13  CB        11.2490  -12.9990  -11.5180 C.3   321  TYR321      0.0560
     14  CG        11.9480  -14.2350  -11.0310 C.ar  321  TYR321     -0.0198
     15  CD1       11.8880  -14.6130   -9.6860 C.ar  321  TYR321     -0.0009
     16  CD2       12.7080  -15.0050  -11.9050 C.ar  321  TYR321     -0.0009
     17  CE1       12.5560  -15.7490   -9.2380 C.ar  321  TYR321      0.0417
     18  CE2       13.3740  -16.1480  -11.4710 C.ar  321  TYR321      0.0417
     19  CZ        13.2950  -16.5130  -10.1390 C.ar  321  TYR321      0.1957
     20  OH        13.9600  -17.6440   -9.7200 O.3   321  TYR321     -0.2866
     21  N          8.5720  -10.5880  -14.5460 N.3   324  ARG324     -0.1245
     22  CA         7.4130  -11.4090  -14.2530 C.3   324  ARG324      0.1563
     23  C          6.4490  -10.5870  -13.4100 C.2   324  ARG324      0.2260
     24  O          6.8540   -9.9660  -12.4260 O.2   324  ARG324     -0.2867
     25  CB         7.8240  -12.6740  -13.5190 C.3   324  ARG324      0.0307
     26  CG         8.8190  -13.4970  -14.3240 C.3   324  ARG324      0.0489
     27  CD         8.9630  -14.9130  -13.7790 C.3   324  ARG324      0.2205
     28  NE        10.0930  -15.5740  -14.4280 N.pl3 324  ARG324     -0.0865
     29  CZ        10.6300  -16.7170  -14.0090 C.cat 324  ARG324      0.5346
     30  NH1       10.1250  -17.3390  -12.9440 N.pl3 324  ARG324      0.1354
     31  NH2       11.6720  -17.2410  -14.6590 N.pl3 324  ARG324      0.1354
     32  N          3.5480  -14.1630   -1.4880 N.3   421  ARG421     -0.1231
     33  CA         4.8480  -14.5160   -2.0500 C.3   421  ARG421      0.1694
     34  C          4.7010  -15.5180   -3.1620 C.2   421  ARG421      0.2592
     35  O          3.7570  -16.3240   -3.1850 O.2   421  ARG421     -0.2718
     36  CB         5.8510  -15.0100   -0.9810 C.3   421  ARG421      0.0321
     37  CG         5.4680  -16.2800   -0.2250 C.3   421  ARG421      0.0489
     38  CD         5.8570  -17.5780   -0.9610 C.3   421  ARG421      0.2205
     39  NE         7.3040  -17.7250   -1.1810 N.pl3 421  ARG421     -0.0865
     40  CZ         8.1800  -18.1300   -0.2580 C.cat 421  ARG421      0.5346
     41  NH1        7.7750  -18.4210    0.9840 N.pl3 421  ARG421      0.1354
     42  NH2        9.4690  -18.2380   -0.5700 N.pl3 421  ARG421      0.1354
     43  N          5.6400  -15.4830   -4.0980 N.am  422  HIS422     -0.1962
     44  CA         5.6350  -16.4730   -5.1480 C.3   422  HIS422      0.1787
     45  C          6.5090  -17.6710   -4.8020 C.2   422  HIS422      0.2620
     46  O          7.5460  -17.5530   -4.1290 O.2   422  HIS422     -0.2715
     47  CB         6.0150  -15.8600   -6.5100 C.3   422  HIS422      0.0785
     48  CG         7.4240  -15.3610   -6.5780 C.ar  422  HIS422      0.0821
     49  ND1        8.4780  -16.1650   -6.9550 N.ar  422  HIS422     -0.2267
     50  CD2        7.9480  -14.1350   -6.3440 C.ar  422  HIS422      0.1154
     51  CE1        9.5960  -15.4600   -6.9270 C.ar  422  HIS422      0.1986
     52  NE2        9.3020  -14.2300   -6.5470 N.ar  422  HIS422     -0.2212
     53  N          6.0790  -18.8300   -5.2620 N.am  423  TYR423     -0.1960
     54  CA         6.8530  -20.0300   -5.0630 C.3   423  TYR423      0.1771
     55  C          6.5000  -20.9650   -6.1820 C.2   423  TYR423      0.2619
     56  O          5.3300  -21.3000   -6.3710 O.2   423  TYR423     -0.2715
     57  CB         6.5740  -20.6580   -3.6800 C.3   423  TYR423      0.0574
     58  CG         7.4420  -21.8630   -3.4090 C.ar  423  TYR423     -0.0198
     59  CD1        8.7660  -21.7100   -2.9900 C.ar  423  TYR423     -0.0009
     60  CD2        6.9490  -23.1540   -3.5830 C.ar  423  TYR423     -0.0009
     61  CE1        9.5760  -22.8100   -2.7460 C.ar  423  TYR423      0.0417
     62  CE2        7.7380  -24.2590   -3.3450 C.ar  423  TYR423      0.0417
     63  CZ         9.0520  -24.0860   -2.9250 C.ar  423  TYR423      0.1957
     64  OH         9.8480  -25.1800   -2.6860 O.3   423  TYR423     -0.2866
     65  N          7.5140  -21.3680   -6.9450 N.am  424  GLU424     -0.1963
     66  CA         7.3050  -22.1040   -8.1970 C.3   424  GLU424      0.1733
     67  C          6.3460  -21.3190   -9.1070 C.2   424  GLU424      0.2616
     68  O          5.4990  -21.8970   -9.7900 O.2   424  GLU424     -0.2715
     69  CB         6.7890  -23.5180   -7.9430 C.3   424  GLU424      0.0429
     70  CG         7.7590  -24.3920   -7.1470 C.3   424  GLU424      0.1163
     71  CD         9.0520  -24.7110   -7.8910 C.2   424  GLU424      0.3649
     72  OE1        9.2560  -24.2510   -9.0450 O.co2 424  GLU424     -0.2457
     73  OE2        9.8890  -25.4260   -7.3040 O.co2 424  GLU424     -0.2457
     74  N          6.5050  -19.9990   -9.0570 N.am  425  ASN425     -0.1972
     75  CA         5.7170  -19.0150   -9.8160 C.3   425  ASN425      0.1688
     76  C          4.2890  -18.8060   -9.3360 C.2   425  ASN425      0.2292
     77  O          3.7120  -17.7610   -9.5920 O.2   425  ASN425     -0.2864
     78  CB         5.7580  -19.2800  -11.3220 C.3   425  ASN425      0.1181
     79  CG         7.1140  -18.9740  -11.9180 C.2   425  ASN425      0.2629
     80  OD1        7.7100  -17.9120  -11.6570 O.2   425  ASN425     -0.2716
     81  ND2        7.6260  -19.9090  -12.7060 N.am  425  ASN425     -0.0877
     82  N         16.0000  -15.1230    0.6530 N.3   436  LEU436     -0.1245
     83  CA        15.2120  -15.4670   -0.5300 C.3   436  LEU436      0.1561
     84  C         13.6990  -15.2780   -0.3120 C.2   436  LEU436      0.2260
     85  O         13.0430  -14.6280   -1.1210 O.2   436  LEU436     -0.2867
     86  CB        15.5600  -16.8530   -1.0560 C.3   436  LEU436      0.0270
     87  CG        14.7930  -17.3120   -2.3030 C.3   436  LEU436      0.0019
     88  CD1       14.9100  -16.3150   -3.4730 C.3   436  LEU436      0.0001
     89  CD2       15.2580  -18.6830   -2.7400 C.3   436  LEU436      0.0001
     90  N         11.0650  -13.1790   -2.4920 N.3   440  ASP440     -0.1239
     91  CA         9.8430  -13.7940   -3.0590 C.3   440  ASP440      0.1674
     92  C          8.5760  -13.0660   -2.6390 C.2   440  ASP440      0.2266
     93  O          7.5370  -13.2540   -3.2610 O.2   440  ASP440     -0.2867
     94  CB         9.7040  -15.2540   -2.6430 C.3   440  ASP440      0.1410
     95  CG        10.6990  -16.1690   -3.3270 C.2   440  ASP440      0.3668
     96  OD1       11.4260  -15.7310   -4.2440 O.co2 440  ASP440     -0.2456
     97  OD2       10.7550  -17.3470   -2.9260 O.co2 440  ASP440     -0.2456
@<TRIPOS>BOND
     1    31    29    1
     2    21    22    1
     3    28    29    2
     4    28    27    1
     5    26    27    1
     6    26    25    1
     7    22    25    1
     8    22    23    1
     9    29    30    1
    10    23    24    2
    11    81    79   am
    12    12    11    2
    13    11    10    1
    14    79    80    2
    15    79    78    1
    16    16    18   ar
    17    16    14   ar
    18    13    10    1
    19    13    14    1
    20    18    19   ar
    21    10     9    1
    22    78    75    1
    23    14    15   ar
    24    19    20    1
    25    19    17   ar
    26     4     3    2
    27     9     3   am
    28    75    76    1
    29    75    74    1
    30    68    67    2
    31    15    17   ar
    32    77    76    2
    33     3     2    1
    34    67    74   am
    35    67    66    1
    36    72    71   ar
    37    66    69    1
    38    66    65    1
    39     2     1    1
    40     2     5    1
    41    69    70    1
    42    71    73   ar
    43    71    70    1
    44     5     6    1
    45    49    51   ar
    46    49    48   ar
    47    65    55   am
    48    51    52   ar
    49    48    47    1
    50    48    50   ar
    51     7     6    2
    52    52    50   ar
    53    47    44    1
    54     6     8   am
    55    56    55    2
    56    55    54    1
    57    53    54    1
    58    53    45   am
    59    44    45    1
    60    44    43    1
    61    54    57    1
    62    45    46    2
    63    96    95   ar
    64    43    34   am
    65    57    58    1
    66    60    58   ar
    67    60    62   ar
    68    88    87    1
    69    58    59   ar
    70    62    63   ar
    71    95    97   ar
    72    95    94    1
    73    93    92    2
    74    35    34    2
    75    34    33    1
    76    91    94    1
    77    91    92    1
    78    91    90    1
    79    59    61   ar
    80    63    61   ar
    81    63    64    1
    82    89    87    1
    83    87    86    1
    84    33    32    1
    85    33    36    1
    86    39    38    1
    87    39    40    2
    88    85    84    2
    89    86    83    1
    90    36    37    1
    91    38    37    1
    92    42    40    1
    93    83    84    1
    94    83    82    1
    95    40    41    1
