@<TRIPOS>MOLECULE
tmp/3akhA01.pdb
 108 105 0 0 0
SMALL
GASTEIGER

@<TRIPOS>ATOM
      1  N        -16.8160   18.6340  -37.3730 N.3    68  TRP68      -0.1241
      2  CA       -16.4900   17.3310  -36.7990 C.3    68  TRP68       0.1605
      3  C        -14.9910   17.1180  -36.5850 C.2    68  TRP68       0.2264
      4  O        -14.1760   17.4530  -37.4460 O.2    68  TRP68      -0.2867
      5  CB       -16.9930   16.2080  -37.6970 C.3    68  TRP68       0.0550
      6  CG       -18.4890   15.9340  -37.6910 C.ar   68  TRP68       0.0003
      7  CD1      -19.4200   16.4470  -36.8470 C.ar   68  TRP68       0.0946
      8  CD2      -19.1840   15.0340  -38.5590 C.ar   68  TRP68       0.0152
      9  NE1      -20.6680   15.9520  -37.1590 N.ar   68  TRP68      -0.2442
     10  CE2      -20.5500   15.0710  -38.1950 C.ar   68  TRP68       0.0810
     11  CE3      -18.7870   14.2030  -39.6190 C.ar   68  TRP68       0.0012
     12  CZ2      -21.5190   14.3150  -38.8470 C.ar   68  TRP68       0.0191
     13  CZ3      -19.7530   13.4340  -40.2620 C.ar   68  TRP68       0.0001
     14  CH2      -21.1120   13.5010  -39.8740 C.ar   68  TRP68       0.0015
     15  N        -24.0560   16.6380  -45.8280 N.3    92  TRP92      -0.1241
     16  CA       -23.2670   15.4230  -46.0020 C.3    92  TRP92       0.1605
     17  C        -22.1120   15.5610  -47.0060 C.2    92  TRP92       0.2264
     18  O        -21.3870   14.5940  -47.2580 O.2    92  TRP92      -0.2867
     19  CB       -24.1840   14.2390  -46.3530 C.3    92  TRP92       0.0550
     20  CG       -24.8750   13.6740  -45.1380 C.ar   92  TRP92       0.0003
     21  CD1      -26.2000   13.8150  -44.7900 C.ar   92  TRP92       0.0946
     22  CD2      -24.2630   12.9200  -44.0820 C.ar   92  TRP92       0.0152
     23  NE1      -26.4440   13.1710  -43.5940 N.ar   92  TRP92      -0.2442
     24  CE2      -25.2730   12.6180  -43.1390 C.ar   92  TRP92       0.0810
     25  CE3      -22.9590   12.4590  -43.8470 C.ar   92  TRP92       0.0012
     26  CZ2      -25.0170   11.8790  -41.9790 C.ar   92  TRP92       0.0191
     27  CZ3      -22.7070   11.7230  -42.6860 C.ar   92  TRP92       0.0001
     28  CH2      -23.7280   11.4470  -41.7700 C.ar   92  TRP92       0.0015
     29  N        -16.5190   12.6430  -50.0570 N.3   124  PHE124     -0.1241
     30  CA       -16.6220   12.6370  -48.6050 C.3   124  PHE124      0.1605
     31  C        -15.2590   12.3910  -47.9600 C.2   124  PHE124      0.2264
     32  O        -14.6320   11.3670  -48.2140 O.2   124  PHE124     -0.2867
     33  CB       -17.5960   11.5160  -48.2220 C.3   124  PHE124      0.0534
     34  CG       -17.9920   11.4890  -46.7790 C.ar  124  PHE124     -0.0203
     35  CD1      -19.0300   12.2950  -46.3020 C.ar  124  PHE124     -0.0042
     36  CD2      -17.3930   10.5800  -45.9050 C.ar  124  PHE124     -0.0042
     37  CE1      -19.4320   12.2340  -44.9680 C.ar  124  PHE124     -0.0003
     38  CE2      -17.7910   10.5130  -44.5680 C.ar  124  PHE124     -0.0003
     39  CZ       -18.8040   11.3490  -44.0940 C.ar  124  PHE124     -0.0000
     40  N        -12.8040   13.3550  -44.2230 N.3   126  LEU126     -0.1245
     41  CA       -12.8000   13.8510  -42.8650 C.3   126  LEU126      0.1561
     42  C        -11.6530   13.2220  -42.0600 C.2   126  LEU126      0.2260
     43  O        -10.9020   12.4010  -42.5820 O.2   126  LEU126     -0.2867
     44  CB       -14.1560   13.5770  -42.1830 C.3   126  LEU126      0.0270
     45  CG       -14.6090   12.1470  -41.8590 C.3   126  LEU126      0.0019
     46  CD1      -16.0180   12.2430  -41.2670 C.3   126  LEU126      0.0001
     47  CD2      -14.6180   11.2200  -43.0550 C.3   126  LEU126      0.0001
     48  N        -18.0840    3.3620  -47.3040 N.3   151  ASN151     -0.1225
     49  CA       -18.1740    4.7400  -46.8340 C.3   151  ASN151      0.1785
     50  C        -16.8470    5.4980  -46.9470 C.2   151  ASN151      0.2597
     51  O        -16.7480    6.4790  -47.6940 O.2   151  ASN151     -0.2718
     52  CB       -18.7100    4.7820  -45.4060 C.3   151  ASN151      0.1169
     53  CG       -20.2250    4.8530  -45.3480 C.2   151  ASN151      0.2627
     54  OD1      -20.9210    4.2210  -46.1380 O.2   151  ASN151     -0.2716
     55  ND2      -20.7410    5.6350  -44.4120 N.am  151  ASN151     -0.0877
     56  N        -15.8270    5.0440  -46.2170 N.am  152  THR152     -0.1953
     57  CA       -14.5020    5.6830  -46.2580 C.3   152  THR152      0.1897
     58  C        -13.3730    4.6800  -46.1310 C.2   152  THR152      0.2313
     59  O        -13.5160    3.6510  -45.4600 O.2   152  THR152     -0.2863
     60  CB       -14.2690    6.7730  -45.1510 C.3   152  THR152      0.1794
     61  OG1      -14.5790    6.2560  -43.8490 O.3   152  THR152     -0.2208
     62  CG2      -15.0840    8.0110  -45.3980 C.3   152  THR152      0.0378
     63  N        -22.0540    0.1990  -41.2900 N.3   184  TYR184     -0.1241
     64  CA       -21.4630    0.8900  -42.4290 C.3   184  TYR184      0.1605
     65  C        -20.0690    0.3250  -42.6520 C.2   184  TYR184      0.2264
     66  O        -19.4480   -0.1960  -41.7080 O.2   184  TYR184     -0.2867
     67  CB       -21.3610    2.3880  -42.1670 C.3   184  TYR184      0.0534
     68  CG       -22.6710    3.1160  -42.0010 C.ar  184  TYR184     -0.0201
     69  CD1      -23.4570    3.4550  -43.1060 C.ar  184  TYR184     -0.0009
     70  CD2      -23.1170    3.4900  -40.7400 C.ar  184  TYR184     -0.0009
     71  CE1      -24.6660    4.1320  -42.9420 C.ar  184  TYR184      0.0417
     72  CE2      -24.3190    4.1740  -40.5670 C.ar  184  TYR184      0.0417
     73  CZ       -25.0850    4.4900  -41.6670 C.ar  184  TYR184      0.1957
     74  OH       -26.2710    5.1640  -41.4800 O.3   184  TYR184     -0.2866
     75  N        -16.6060    1.1560  -42.9120 N.3   186  VAL186     -0.1245
     76  CA       -15.8880    2.3680  -42.5340 C.3   186  VAL186      0.1561
     77  C        -14.4940    2.0710  -42.0150 C.2   186  VAL186      0.2260
     78  O        -14.3180    1.1810  -41.1810 O.2   186  VAL186     -0.2867
     79  CB       -16.6400    3.1220  -41.4130 C.3   186  VAL186      0.0252
     80  CG1      -15.7990    4.2770  -40.8660 C.3   186  VAL186      0.0019
     81  CG2      -17.9680    3.6490  -41.9020 C.3   186  VAL186      0.0019
     82  N        -12.0450    5.1090  -40.4310 N.3   188  GLU188     -0.1245
     83  CA       -11.9710    6.5660  -40.1950 C.3   188  GLU188      0.1567
     84  C        -11.0610    6.8910  -39.0070 C.2   188  GLU188      0.2260
     85  O        -10.4250    5.9900  -38.4730 O.2   188  GLU188     -0.2867
     86  CB       -13.3750    7.1780  -40.0310 C.3   188  GLU188      0.0388
     87  CG       -14.0900    6.7730  -38.7420 C.3   188  GLU188      0.1160
     88  CD       -15.5420    7.2360  -38.6970 C.2   188  GLU188      0.3649
     89  OE1      -16.0440    7.7970  -39.6990 O.co2 188  GLU188     -0.2457
     90  OE2      -16.1830    7.0550  -37.6410 O.co2 188  GLU188     -0.2457
     91  N        -16.3720    0.2620  -38.5130 N.3   206  SER206     -0.1202
     92  CA       -17.8270    0.0790  -38.3550 C.3   206  SER206      0.2020
     93  C        -18.5720    1.3540  -37.9490 C.2   206  SER206      0.2619
     94  O        -17.9910    2.4350  -37.8180 O.2   206  SER206     -0.2717
     95  CB       -18.1570   -1.1140  -37.4250 C.3   206  SER206      0.2103
     96  OG       -17.7740   -2.3300  -38.0400 O.3   206  SER206     -0.2182
     97  N        -19.8860    1.2250  -37.7800 N.am  207  ALA207     -0.1965
     98  CA       -20.7300    2.3160  -37.3220 C.3   207  ALA207      0.1728
     99  C        -20.3410    2.8320  -35.9360 C.2   207  ALA207      0.2616
    100  O        -19.6620    2.1360  -35.1660 O.2   207  ALA207     -0.2715
    101  CB       -22.2100    1.8840  -37.3550 C.3   207  ALA207      0.0334
    102  N        -20.7730    4.0570  -35.6330 N.am  208  THR208     -0.1951
    103  CA       -20.4530    4.7350  -34.3750 C.3   208  THR208      0.1897
    104  C        -21.3370    4.2960  -33.2110 C.2   208  THR208      0.2313
    105  O        -21.6270    5.0830  -32.3050 O.2   208  THR208     -0.2863
    106  CB       -20.5370    6.2780  -34.5000 C.3   208  THR208      0.1794
    107  OG1      -21.8110    6.6430  -35.0420 O.3   208  THR208     -0.2208
    108  CG2      -19.4220    6.8170  -35.3960 C.3   208  THR208      0.0378
@<TRIPOS>BOND
     1    29    30    1
     2    30    33    1
     3    30    31    1
     4    33    34    1
     5    32    31    2
     6    51    50    2
     7    48    49    1
     8    18    17    2
     9    17    16    1
    10    50    49    1
    11    50    56   am
    12    49    52    1
    13    34    35   ar
    14    34    36   ar
    15    19    16    1
    16    19    20    1
    17    35    37   ar
    18    57    56    1
    19    57    58    1
    20    57    60    1
    21    54    53    2
    22    58    59    2
    23    16    15    1
    24    36    38   ar
    25    52    53    1
    26    62    60    1
    27    53    55   am
    28    60    61    1
    29    20    21   ar
    30    20    22   ar
    31    37    39   ar
    32    21    23   ar
    33    38    39   ar
    34    40    41    1
    35    22    25   ar
    36    22    24   ar
    37    25    27   ar
    38    23    24   ar
    39    24    26   ar
    40    69    71   ar
    41    69    68   ar
    42    47    45    1
    43    71    73   ar
    44    75    76    1
    45    41    44    1
    46    41    42    1
    47    27    28   ar
    48    65    64    1
    49    65    66    2
    50    43    42    2
    51    76    77    1
    52    76    79    1
    53    64    67    1
    54    64    63    1
    55    44    45    1
    56    67    68    1
    57    77    78    2
    58    68    70   ar
    59    26    28   ar
    60    81    79    1
    61    45    46    1
    62    73    74    1
    63    73    72   ar
    64    79    80    1
    65    70    72   ar
    66    82    83    1
    67    13    14   ar
    68    13    11   ar
    69    83    86    1
    70    83    84    1
    71    86    87    1
    72    14    12   ar
    73    89    88   ar
    74    11     8   ar
    75    84    85    2
    76    12    10   ar
    77    87    88    1
    78    88    90   ar
    79     8    10   ar
    80     8     6   ar
    81    91    92    1
    82    92    93    1
    83    92    95    1
    84    10     9   ar
    85    96    95    1
    86    93    94    2
    87    93    97   am
    88    97    98    1
    89     5     6    1
    90     5     2    1
    91     6     7   ar
    92     4     3    2
    93     1     2    1
    94   101    98    1
    95    98    99    1
    96     9     7   ar
    97     2     3    1
    98    99   102   am
    99    99   100    2
   100   102   103    1
   101   108   106    1
   102   107   106    1
   103   106   103    1
   104   103   104    1
   105   104   105    2
