@<TRIPOS>MOLECULE
tmp/3akhA00.pdb
 124 117 0 0 0
SMALL
GASTEIGER

@<TRIPOS>ATOM
      1  N        -14.5430   12.2020  -30.2960 N.3    12  ASP12      -0.1239
      2  CA       -13.3820   12.4280  -31.1800 C.3    12  ASP12       0.1674
      3  C        -12.3080   13.2970  -30.4910 C.2    12  ASP12       0.2266
      4  O        -11.8820   14.3370  -31.0280 O.2    12  ASP12      -0.2867
      5  CB       -13.8340   13.0830  -32.4890 C.3    12  ASP12       0.1410
      6  CG       -15.0670   12.4330  -33.0800 C.2    12  ASP12       0.3668
      7  OD1      -15.2010   11.1890  -33.0340 O.co2  12  ASP12      -0.2456
      8  OD2      -15.9170   13.1740  -33.6140 O.co2  12  ASP12      -0.2456
      9  N        -15.1490   16.9640  -30.6590 N.3    28  THR28      -0.1218
     10  CA       -16.4390   17.1970  -31.3270 C.3    28  THR28       0.1862
     11  C        -17.5000   17.4670  -30.2550 C.2    28  THR28       0.2287
     12  O        -17.6610   16.6640  -29.3400 O.2    28  THR28      -0.2866
     13  CB       -16.8570   15.9740  -32.1700 C.3    28  THR28       0.1770
     14  OG1      -15.8960   15.7550  -33.2160 O.3    28  THR28      -0.2211
     15  CG2      -18.2190   16.1870  -32.8170 C.3    28  THR28       0.0375
     16  N        -22.3260   20.0350  -33.0870 N.3    32  TYR32      -0.1241
     17  CA       -21.5500   20.0040  -34.3290 C.3    32  TYR32       0.1605
     18  C        -21.4590   21.3840  -34.9790 C.2    32  TYR32       0.2264
     19  O        -21.5590   21.4910  -36.2040 O.2    32  TYR32      -0.2867
     20  CB       -22.1570   19.0240  -35.3480 C.3    32  TYR32       0.0534
     21  CG       -22.4340   17.6060  -34.8640 C.ar   32  TYR32      -0.0201
     22  CD1      -21.5070   16.9060  -34.0960 C.ar   32  TYR32      -0.0009
     23  CD2      -23.6090   16.9500  -35.2320 C.ar   32  TYR32      -0.0009
     24  CE1      -21.7600   15.6000  -33.6700 C.ar   32  TYR32       0.0417
     25  CE2      -23.8680   15.6300  -34.8240 C.ar   32  TYR32       0.0417
     26  CZ       -22.9410   14.9630  -34.0430 C.ar   32  TYR32       0.1957
     27  OH       -23.1880   13.6580  -33.6370 O.3    32  TYR32      -0.2866
     28  N        -16.8160   18.6340  -37.3730 N.3    68  TRP68      -0.1227
     29  CA       -16.4900   17.3310  -36.7990 C.3    68  TRP68       0.1737
     30  C        -14.9910   17.1180  -36.5850 C.2    68  TRP68       0.2595
     31  O        -14.1760   17.4530  -37.4460 O.2    68  TRP68      -0.2718
     32  CB       -16.9930   16.2080  -37.6970 C.3    68  TRP68       0.0564
     33  CG       -18.4890   15.9340  -37.6910 C.ar   68  TRP68       0.0003
     34  CD1      -19.4200   16.4470  -36.8470 C.ar   68  TRP68       0.0946
     35  CD2      -19.1840   15.0340  -38.5590 C.ar   68  TRP68       0.0152
     36  NE1      -20.6680   15.9520  -37.1590 N.ar   68  TRP68      -0.2442
     37  CE2      -20.5500   15.0710  -38.1950 C.ar   68  TRP68       0.0810
     38  CE3      -18.7870   14.2030  -39.6190 C.ar   68  TRP68       0.0012
     39  CZ2      -21.5190   14.3150  -38.8470 C.ar   68  TRP68       0.0191
     40  CZ3      -19.7530   13.4340  -40.2620 C.ar   68  TRP68       0.0001
     41  CH2      -21.1120   13.5010  -39.8740 C.ar   68  TRP68       0.0015
     42  N        -14.6570   16.5380  -35.4330 N.am   69  ALA69      -0.1980
     43  CA       -13.3250   15.9820  -35.1380 C.3    69  ALA69       0.1597
     44  C        -12.1200   16.8980  -35.3710 C.2    69  ALA69       0.2287
     45  O        -11.2320   16.5750  -36.1560 O.2    69  ALA69      -0.2864
     46  CB       -13.1450   14.6290  -35.8520 C.3    69  ALA69       0.0319
     47  N        -13.3080   18.8040  -40.0040 N.3    84  ALA84      -0.1245
     48  CA       -14.1640   18.4840  -41.1440 C.3    84  ALA84       0.1562
     49  C        -15.4710   19.2720  -41.0760 C.2    84  ALA84       0.2260
     50  O        -15.8940   19.6760  -39.9940 O.2    84  ALA84      -0.2867
     51  CB       -14.4340   16.9790  -41.2250 C.3    84  ALA84       0.0290
     52  N        -12.8040   13.3550  -44.2230 N.3   126  LEU126     -0.1231
     53  CA       -12.8000   13.8510  -42.8650 C.3   126  LEU126      0.1693
     54  C        -11.6530   13.2220  -42.0600 C.2   126  LEU126      0.2592
     55  O        -10.9020   12.4010  -42.5820 O.2   126  LEU126     -0.2718
     56  CB       -14.1560   13.5770  -42.1830 C.3   126  LEU126      0.0284
     57  CG       -14.6090   12.1470  -41.8590 C.3   126  LEU126      0.0019
     58  CD1      -16.0180   12.2430  -41.2670 C.3   126  LEU126      0.0001
     59  CD2      -14.6180   11.2200  -43.0550 C.3   126  LEU126      0.0001
     60  N        -11.5200   13.6630  -40.8150 N.am  127  ASP127     -0.1974
     61  CA       -10.6060   13.0690  -39.8250 C.3   127  ASP127      0.1709
     62  C         -9.1250   13.2060  -40.1890 C.2   127  ASP127      0.2293
     63  O         -8.3400   12.2940  -39.9490 O.2   127  ASP127     -0.2864
     64  CB       -10.9410   11.5810  -39.5940 C.3   127  ASP127      0.1436
     65  CG       -12.2640   11.3700  -38.8600 C.2   127  ASP127      0.3671
     66  OD1      -12.8520   12.3340  -38.3230 O.co2 127  ASP127     -0.2456
     67  OD2      -12.7300   10.2090  -38.8370 O.co2 127  ASP127     -0.2456
     68  N        -12.0450    5.1090  -40.4310 N.3   188  GLU188     -0.1245
     69  CA       -11.9710    6.5660  -40.1950 C.3   188  GLU188      0.1567
     70  C        -11.0610    6.8910  -39.0070 C.2   188  GLU188      0.2260
     71  O        -10.4250    5.9900  -38.4730 O.2   188  GLU188     -0.2867
     72  CB       -13.3750    7.1780  -40.0310 C.3   188  GLU188      0.0388
     73  CG       -14.0900    6.7730  -38.7420 C.3   188  GLU188      0.1160
     74  CD       -15.5420    7.2360  -38.6970 C.2   188  GLU188      0.3649
     75  OE1      -16.0440    7.7970  -39.6990 O.co2 188  GLU188     -0.2457
     76  OE2      -16.1830    7.0550  -37.6410 O.co2 188  GLU188     -0.2457
     77  N        -20.7730    4.0570  -35.6330 N.3   208  THR208     -0.1218
     78  CA       -20.4530    4.7350  -34.3750 C.3   208  THR208      0.1862
     79  C        -21.3370    4.2960  -33.2110 C.2   208  THR208      0.2287
     80  O        -21.6270    5.0830  -32.3050 O.2   208  THR208     -0.2866
     81  CB       -20.5370    6.2780  -34.5000 C.3   208  THR208      0.1770
     82  OG1      -21.8110    6.6430  -35.0420 O.3   208  THR208     -0.2211
     83  CG2      -19.4220    6.8170  -35.3960 C.3   208  THR208      0.0375
     84  N        -18.4200    0.0580  -32.7810 N.3   212  TYR212     -0.1241
     85  CA       -17.2700    0.9290  -33.0770 C.3   212  TYR212      0.1605
     86  C        -16.0810    0.3620  -32.3520 C.2   212  TYR212      0.2264
     87  O        -16.2050   -0.1090  -31.2010 O.2   212  TYR212     -0.2867
     88  CB       -17.5150    2.3390  -32.5680 C.3   212  TYR212      0.0534
     89  CG       -16.8580    3.4940  -33.3300 C.ar  212  TYR212     -0.0201
     90  CD1      -16.9010    3.5720  -34.7270 C.ar  212  TYR212     -0.0009
     91  CD2      -16.2680    4.5440  -32.6270 C.ar  212  TYR212     -0.0009
     92  CE1      -16.3340    4.6910  -35.4160 C.ar  212  TYR212      0.0417
     93  CE2      -15.7050    5.6550  -33.2910 C.ar  212  TYR212      0.0417
     94  CZ       -15.7500    5.7200  -34.6710 C.ar  212  TYR212      0.1957
     95  OH       -15.1810    6.8320  -35.2670 O.3   212  TYR212     -0.2866
     96  N        -12.3590    6.5380  -32.2150 N.3   252  HIS252     -0.1241
     97  CA       -11.8260    7.8250  -32.6430 C.3   252  HIS252      0.1621
     98  C        -10.7860    8.3580  -31.6800 C.2   252  HIS252      0.2264
     99  O        -10.9990    9.3370  -30.9650 O.2   252  HIS252     -0.2867
    100  CB       -12.9330    8.8400  -32.9130 C.3   252  HIS252      0.0745
    101  CG       -12.5620    9.8470  -33.9450 C.ar  252  HIS252      0.0817
    102  ND1      -11.5490   10.7590  -33.7610 N.ar  252  HIS252     -0.2268
    103  CD2      -13.0640   10.0810  -35.1770 C.ar  252  HIS252      0.1154
    104  CE1      -11.4490   11.5210  -34.8350 C.ar  252  HIS252      0.1986
    105  NE2      -12.3530   11.1260  -35.7100 N.ar  252  HIS252     -0.2212
    106  N        -27.2800    9.9590  -35.2530 N.3   281  LEU281     -0.1245
    107  CA       -26.4370   11.1490  -35.3550 C.3   281  LEU281      0.1561
    108  C        -26.6170   12.0950  -34.1640 C.2   281  LEU281      0.2260
    109  O        -25.7250   12.8740  -33.8380 O.2   281  LEU281     -0.2867
    110  CB       -26.7580   11.9010  -36.6510 C.3   281  LEU281      0.0270
    111  CG       -25.6500   12.3690  -37.6000 C.3   281  LEU281      0.0019
    112  CD1      -26.1300   13.6240  -38.3200 C.3   281  LEU281      0.0001
    113  CD2      -24.3040   12.6090  -36.9140 C.3   281  LEU281      0.0001
    114  N        -21.4500   10.2560  -26.0560 N.3   286  ARG286     -0.1245
    115  CA       -20.0530    9.8300  -26.1060 C.3   286  ARG286      0.1563
    116  C        -19.2130   10.6790  -25.1700 C.2   286  ARG286      0.2260
    117  O        -19.3700   11.9010  -25.0930 O.2   286  ARG286     -0.2867
    118  CB       -19.4920    9.8620  -27.5250 C.3   286  ARG286      0.0307
    119  CG       -19.9900    8.7370  -28.3830 C.3   286  ARG286      0.0489
    120  CD       -19.6050    8.8980  -29.8290 C.3   286  ARG286      0.2205
    121  NE       -20.0970   10.1600  -30.4010 N.pl3 286  ARG286     -0.0865
    122  CZ       -19.8110   10.5840  -31.6280 C.cat 286  ARG286      0.5346
    123  NH1      -19.0310    9.8580  -32.4230 N.pl3 286  ARG286      0.1354
    124  NH2      -20.3020   11.7400  -32.0550 N.pl3 286  ARG286      0.1354
@<TRIPOS>BOND
     1    52    53    1
     2    59    57    1
     3    53    56    1
     4    53    54    1
     5    55    54    2
     6    56    57    1
     7    54    60   am
     8    57    58    1
     9    51    48    1
    10    48    49    1
    11    48    47    1
    12    49    50    2
    13    60    61    1
    14    68    69    1
    15    40    41   ar
    16    40    38   ar
    17    69    72    1
    18    69    70    1
    19    62    63    2
    20    62    61    1
    21    72    73    1
    22    41    39   ar
    23    61    64    1
    24    75    74   ar
    25    38    35   ar
    26    64    65    1
    27    70    71    2
    28    65    67   ar
    29    65    66   ar
    30    39    37   ar
    31    73    74    1
    32    74    76   ar
    33    35    37   ar
    34    35    33   ar
    35   112   111    1
    36    37    36   ar
    37    32    33    1
    38    32    29    1
    39    33    34   ar
    40   111   113    1
    41   111   110    1
    42    31    30    2
    43    28    29    1
    44    36    34   ar
    45    29    30    1
    46   110   107    1
    47    30    42   am
    48    19    18    2
    49    45    44    2
    50    46    43    1
    51   105   103   ar
    52   105   104   ar
    53    77    78    1
    54    42    43    1
    55    92    90   ar
    56    92    94   ar
    57    83    81    1
    58    44    43    1
    59   107   106    1
    60   107   108    1
    61    20    21    1
    62    20    17    1
    63    95    94    1
    64    23    21   ar
    65    23    25   ar
    66   103   101   ar
    67    82    81    1
    68    18    17    1
    69    21    22   ar
    70   104   102   ar
    71    25    26   ar
    72    90    89   ar
    73    94    93   ar
    74    81    78    1
    75    78    79    1
    76    17    16    1
    77   108   109    2
    78    22    24   ar
    79    26    24   ar
    80    26    27    1
    81   101   102   ar
    82   101   100    1
    83     8     6   ar
    84    89    91   ar
    85    89    88    1
    86    93    91   ar
    87    14    13    1
    88    79    80    2
    89     6     7   ar
    90     6     5    1
    91    85    84    1
    92    85    88    1
    93    85    86    1
    94   100    97    1
    95    15    13    1
    96    97    96    1
    97    97    98    1
    98     5     2    1
    99   123   122    1
   100    86    87    2
   101    13    10    1
   102   124   122    1
   103    98    99    2
   104   122   121    2
   105    10     9    1
   106    10    11    1
   107     2     3    1
   108     2     1    1
   109     4     3    2
   110   121   120    1
   111    11    12    2
   112   120   119    1
   113   119   118    1
   114   118   115    1
   115   115   114    1
   116   115   116    1
   117   116   117    2
