@<TRIPOS>MOLECULE
tmp/3akhA03.pdb
 97 95 0 0 0
SMALL
GASTEIGER

@<TRIPOS>ATOM
      1  N         12.0800   -9.5740   -7.3250 N.3   320  ASN320     -0.1225
      2  CA        13.1430  -10.4800   -7.7720 C.3   320  ASN320      0.1785
      3  C         13.0280  -10.9940   -9.2180 C.2   320  ASN320      0.2597
      4  O         14.0060  -11.5400   -9.7840 O.2   320  ASN320     -0.2718
      5  CB        13.4120  -11.6110   -6.7530 C.3   320  ASN320      0.1169
      6  CG        12.1470  -12.3100   -6.2440 C.2   320  ASN320      0.2627
      7  OD1       11.0210  -11.8200   -6.3870 O.2   320  ASN320     -0.2716
      8  ND2       12.3470  -13.4680   -5.6100 N.am  320  ASN320     -0.0877
      9  N         11.8420  -10.8230   -9.8060 N.am  321  TYR321     -0.1976
     10  CA        11.5990  -11.1180  -11.2090 C.3   321  TYR321      0.1639
     11  C         10.8990   -9.9250  -11.8530 C.2   321  TYR321      0.2290
     12  O          9.6770   -9.9490  -12.0250 O.2   321  TYR321     -0.2864
     13  CB        10.7550  -12.3870  -11.3400 C.3   321  TYR321      0.0560
     14  CG        11.4930  -13.5980  -10.8410 C.ar  321  TYR321     -0.0198
     15  CD1       12.3370  -14.3200  -11.6930 C.ar  321  TYR321     -0.0009
     16  CD2       11.3870  -14.0040   -9.5120 C.ar  321  TYR321     -0.0009
     17  CE1       13.0440  -15.4200  -11.2280 C.ar  321  TYR321      0.0417
     18  CE2       12.0950  -15.0970   -9.0380 C.ar  321  TYR321      0.0417
     19  CZ        12.9110  -15.8080   -9.9080 C.ar  321  TYR321      0.1957
     20  OH        13.6040  -16.9080   -9.4690 O.3   321  TYR321     -0.2866
     21  N          8.1770  -10.1270  -14.4240 N.3   324  ARG324     -0.1245
     22  CA         6.9570  -10.9000  -14.1330 C.3   324  ARG324      0.1563
     23  C          5.9290  -10.0800  -13.3560 C.2   324  ARG324      0.2260
     24  O          6.2610   -9.4170  -12.3770 O.2   324  ARG324     -0.2867
     25  CB         7.2870  -12.1970  -13.3900 C.3   324  ARG324      0.0307
     26  CG         8.1290  -13.1400  -14.2230 C.3   324  ARG324      0.0489
     27  CD         8.4770  -14.4350  -13.4890 C.3   324  ARG324      0.2205
     28  NE         9.6350  -15.0500  -14.1310 N.pl3 324  ARG324     -0.0865
     29  CZ        10.2170  -16.1810  -13.7420 C.cat 324  ARG324      0.5346
     30  NH1        9.7660  -16.8730  -12.6890 N.pl3 324  ARG324      0.1354
     31  NH2       11.2740  -16.6220  -14.4230 N.pl3 324  ARG324      0.1354
     32  N          2.8340  -13.5840   -1.4680 N.3   421  ARG421     -0.1231
     33  CA         4.1700  -13.9400   -1.9910 C.3   421  ARG421      0.1694
     34  C          4.0540  -14.9610   -3.1070 C.2   421  ARG421      0.2592
     35  O          3.0860  -15.7250   -3.1510 O.2   421  ARG421     -0.2718
     36  CB         5.0790  -14.4760   -0.8570 C.3   421  ARG421      0.0321
     37  CG         4.6550  -15.8180   -0.1900 C.3   421  ARG421      0.0489
     38  CD         5.2270  -17.0530   -0.9330 C.3   421  ARG421      0.2205
     39  NE         6.6910  -17.0350   -1.0110 N.pl3 421  ARG421     -0.0865
     40  CZ         7.4980  -17.3240    0.0030 C.cat 421  ARG421      0.5346
     41  NH1        7.0010  -17.7170    1.1760 N.pl3 421  ARG421      0.1354
     42  NH2        8.8130  -17.2680   -0.1730 N.pl3 421  ARG421      0.1354
     43  N          5.0390  -14.9870   -4.0080 N.am  422  HIS422     -0.1962
     44  CA         5.0200  -15.9860   -5.0700 C.3   422  HIS422      0.1787
     45  C          5.9450  -17.1430   -4.6870 C.2   422  HIS422      0.2620
     46  O          6.9510  -16.9560   -3.9740 O.2   422  HIS422     -0.2715
     47  CB         5.3640  -15.3720   -6.4340 C.3   422  HIS422      0.0785
     48  CG         6.7350  -14.7870   -6.5040 C.ar  422  HIS422      0.0821
     49  ND1        7.8280  -15.5260   -6.8970 N.ar  422  HIS422     -0.2267
     50  CD2        7.1970  -13.5470   -6.2160 C.ar  422  HIS422      0.1154
     51  CE1        8.9070  -14.7700   -6.8530 C.ar  422  HIS422      0.1986
     52  NE2        8.5540  -13.5620   -6.4430 N.ar  422  HIS422     -0.2212
     53  N          5.5760  -18.3310   -5.1510 N.am  423  TYR423     -0.1960
     54  CA         6.3430  -19.5510   -4.9300 C.3   423  TYR423      0.1771
     55  C          6.0380  -20.4760   -6.0990 C.2   423  TYR423      0.2619
     56  O          4.8850  -20.7950   -6.3560 O.2   423  TYR423     -0.2715
     57  CB         5.9850  -20.1920   -3.5740 C.3   423  TYR423      0.0574
     58  CG         6.7800  -21.4670   -3.3210 C.ar  423  TYR423     -0.0198
     59  CD1        8.1260  -21.4060   -2.9230 C.ar  423  TYR423     -0.0009
     60  CD2        6.2150  -22.7200   -3.5300 C.ar  423  TYR423     -0.0009
     61  CE1        8.8770  -22.5590   -2.7230 C.ar  423  TYR423      0.0417
     62  CE2        6.9530  -23.8880   -3.3240 C.ar  423  TYR423      0.0417
     63  CZ         8.2930  -23.8010   -2.9340 C.ar  423  TYR423      0.1957
     64  OH         9.0420  -24.9530   -2.6980 O.3   423  TYR423     -0.2866
     65  N          7.0790  -20.8770   -6.8310 N.am  424  GLU424     -0.1963
     66  CA         6.9020  -21.5490   -8.1290 C.3   424  GLU424      0.1733
     67  C          5.9460  -20.7490   -9.0110 C.2   424  GLU424      0.2616
     68  O          5.0980  -21.3250   -9.7000 O.2   424  GLU424     -0.2715
     69  CB         6.3710  -22.9750   -7.9610 C.3   424  GLU424      0.0429
     70  CG         7.1610  -23.8370   -6.9940 C.3   424  GLU424      0.1163
     71  CD         8.4170  -24.4240   -7.6110 C.2   424  GLU424      0.3649
     72  OE1        8.8100  -24.0290   -8.7430 O.co2 424  GLU424     -0.2457
     73  OE2        9.0290  -25.2870   -6.9450 O.co2 424  GLU424     -0.2457
     74  N          6.0720  -19.4270   -8.9290 N.am  425  ASN425     -0.1972
     75  CA         5.2870  -18.4520   -9.7010 C.3   425  ASN425      0.1688
     76  C          3.8300  -18.2820   -9.2650 C.2   425  ASN425      0.2292
     77  O          3.1910  -17.3130   -9.6600 O.2   425  ASN425     -0.2864
     78  CB         5.3790  -18.6980  -11.2070 C.3   425  ASN425      0.1181
     79  CG         6.7320  -18.3380  -11.7600 C.2   425  ASN425      0.2629
     80  OD1        7.3350  -17.3400  -11.3640 O.2   425  ASN425     -0.2716
     81  ND2        7.2390  -19.1730  -12.6610 N.am  425  ASN425     -0.0877
     82  N         15.0140  -14.3910    0.8650 N.3   436  LEU436     -0.1245
     83  CA        14.2480  -14.7600   -0.3080 C.3   436  LEU436      0.1561
     84  C         12.7480  -14.5270   -0.0950 C.2   436  LEU436      0.2260
     85  O         12.0800  -14.0380   -1.0060 O.2   436  LEU436     -0.2867
     86  CB        14.5100  -16.2130   -0.7040 C.3   436  LEU436      0.0270
     87  CG        13.8090  -16.7290   -1.9600 C.3   436  LEU436      0.0019
     88  CD1       14.0390  -15.8460   -3.1940 C.3   436  LEU436      0.0001
     89  CD2       14.2560  -18.1480   -2.2580 C.3   436  LEU436      0.0001
     90  N         10.2310  -12.3220   -2.3790 N.3   440  ASP440     -0.1239
     91  CA         9.0360  -12.9750   -2.9410 C.3   440  ASP440      0.1674
     92  C          7.7380  -12.2530   -2.5670 C.2   440  ASP440      0.2266
     93  O          6.6930  -12.4700   -3.2120 O.2   440  ASP440     -0.2867
     94  CB         8.9350  -14.4180   -2.4240 C.3   440  ASP440      0.1410
     95  CG         9.8840  -15.4060   -3.1280 C.2   440  ASP440      0.3668
     96  OD1       10.4910  -15.1080   -4.1760 O.co2 440  ASP440     -0.2456
     97  OD2       10.0100  -16.5330   -2.6060 O.co2 440  ASP440     -0.2456
@<TRIPOS>BOND
     1    21    22    1
     2    31    29    1
     3    26    27    1
     4    26    25    1
     5    22    25    1
     6    22    23    1
     7    28    29    2
     8    28    27    1
     9    29    30    1
    10    23    24    2
    11    81    79   am
    12    12    11    2
    13    11    10    1
    14    79    80    2
    15    79    78    1
    16    15    17   ar
    17    15    14   ar
    18    13    10    1
    19    13    14    1
    20    17    19   ar
    21    10     9    1
    22    78    75    1
    23    14    16   ar
    24    19    20    1
    25    19    18   ar
    26     9     3   am
    27     4     3    2
    28    75    76    1
    29    75    74    1
    30    68    67    2
    31    77    76    2
    32    16    18   ar
    33     3     2    1
    34    67    74   am
    35    67    66    1
    36    72    71   ar
    37    66    69    1
    38    66    65    1
    39    69    70    1
    40     2     1    1
    41     2     5    1
    42    71    70    1
    43    71    73   ar
    44    49    51   ar
    45    49    48   ar
    46    51    52   ar
    47    65    55   am
    48     5     6    1
    49    48    47    1
    50    48    50   ar
    51    52    50   ar
    52    47    44    1
    53     7     6    2
    54    56    55    2
    55     6     8   am
    56    55    54    1
    57    53    54    1
    58    53    45   am
    59    44    45    1
    60    44    43    1
    61    54    57    1
    62    45    46    2
    63    96    95   ar
    64    43    34   am
    65    57    58    1
    66    60    62   ar
    67    60    58   ar
    68    62    63   ar
    69    58    59   ar
    70    93    92    2
    71    88    87    1
    72    35    34    2
    73    95    97   ar
    74    95    94    1
    75    34    33    1
    76    91    92    1
    77    91    94    1
    78    91    90    1
    79    63    61   ar
    80    63    64    1
    81    59    61   ar
    82    89    87    1
    83    33    32    1
    84    33    36    1
    85    87    86    1
    86    39    38    1
    87    39    40    2
    88    85    84    2
    89    38    37    1
    90    36    37    1
    91    86    83    1
    92    83    84    1
    93    83    82    1
    94    42    40    1
    95    40    41    1
