@<TRIPOS>MOLECULE
tmp/3akiA03.pdb
 97 95 0 0 0
SMALL
GASTEIGER

@<TRIPOS>ATOM
      1  N         12.1090   -8.9640   -7.1670 N.3   321  ASN321     -0.1225
      2  CA        13.1870   -9.8170   -7.6350 C.3   321  ASN321      0.1785
      3  C         13.0230  -10.3210   -9.0730 C.2   321  ASN321      0.2597
      4  O         13.9670  -10.8650   -9.6570 O.2   321  ASN321     -0.2718
      5  CB        13.4900  -10.9550   -6.6410 C.3   321  ASN321      0.1169
      6  CG        12.2560  -11.7580   -6.2350 C.2   321  ASN321      0.2627
      7  OD1       11.1150  -11.3400   -6.4200 O.2   321  ASN321     -0.2716
      8  ND2       12.4980  -12.9250   -5.6510 N.am  321  ASN321     -0.0877
      9  N         11.8260  -10.1370   -9.6360 N.am  322  TYR322     -0.1976
     10  CA        11.5900  -10.3750  -11.0660 C.3   322  TYR322      0.1639
     11  C         10.8740   -9.1590  -11.6270 C.2   322  TYR322      0.2290
     12  O          9.6500   -9.1710  -11.8090 O.2   322  TYR322     -0.2864
     13  CB        10.7710  -11.6300  -11.2830 C.3   322  TYR322      0.0560
     14  CG        11.4610  -12.8810  -10.8150 C.ar  322  TYR322     -0.0198
     15  CD1       11.3090  -13.3370   -9.5040 C.ar  322  TYR322     -0.0009
     16  CD2       12.2720  -13.6040  -11.6750 C.ar  322  TYR322     -0.0009
     17  CE1       11.9530  -14.4870   -9.0680 C.ar  322  TYR322      0.0417
     18  CE2       12.9200  -14.7550  -11.2550 C.ar  322  TYR322      0.0417
     19  CZ        12.7480  -15.1960   -9.9530 C.ar  322  TYR322      0.1957
     20  OH        13.3870  -16.3420   -9.5450 O.3   322  TYR322     -0.2866
     21  N          8.0960   -9.2370  -14.1670 N.3   325  ARG325     -0.1245
     22  CA         6.8990  -10.0260  -13.8820 C.3   325  ARG325      0.1563
     23  C          5.8970   -9.2530  -13.0430 C.2   325  ARG325      0.2260
     24  O          6.2460   -8.6340  -12.0270 O.2   325  ARG325     -0.2867
     25  CB         7.2640  -11.3550  -13.2110 C.3   325  ARG325      0.0307
     26  CG         8.1120  -12.2740  -14.0870 C.3   325  ARG325      0.0489
     27  CD         8.4650  -13.5890  -13.3790 C.3   325  ARG325      0.2205
     28  NE         9.5480  -14.2870  -14.0680 N.pl3 325  ARG325     -0.0865
     29  CZ        10.1220  -15.4150  -13.6380 C.cat 325  ARG325      0.5346
     30  NH1        9.7250  -15.9910  -12.5000 N.pl3 325  ARG325      0.1354
     31  NH2       11.1130  -15.9610  -14.3390 N.pl3 325  ARG325      0.1354
     32  N          2.9970  -13.0130   -1.2460 N.3   422  ARG422     -0.1231
     33  CA         4.2710  -13.3330   -1.8560 C.3   422  ARG422      0.1694
     34  C          4.1290  -14.3540   -2.9800 C.2   422  ARG422      0.2592
     35  O          3.2280  -15.2240   -2.9600 O.2   422  ARG422     -0.2718
     36  CB         5.2910  -13.8010   -0.8070 C.3   422  ARG422      0.0321
     37  CG         4.9110  -15.0540   -0.0610 C.3   422  ARG422      0.0489
     38  CD         5.3220  -16.3170   -0.7880 C.3   422  ARG422      0.2205
     39  NE         6.7610  -16.3840   -1.0460 N.pl3 422  ARG422     -0.0865
     40  CZ         7.6560  -16.8440   -0.1760 C.cat 422  ARG422      0.5346
     41  NH1        7.2680  -17.2590    1.0290 N.pl3 422  ARG422      0.1354
     42  NH2        8.9410  -16.8830   -0.4970 N.pl3 422  ARG422      0.1354
     43  N          5.0090  -14.2410   -3.9730 N.am  423  HIS423     -0.1962
     44  CA         5.0510  -15.2390   -5.0070 C.3   423  HIS423      0.1787
     45  C          5.9550  -16.3770   -4.5960 C.2   423  HIS423      0.2620
     46  O          6.9230  -16.1800   -3.8580 O.2   423  HIS423     -0.2715
     47  CB         5.4260  -14.6470   -6.3720 C.3   423  HIS423      0.0785
     48  CG         6.8200  -14.0960   -6.4440 C.ar  423  HIS423      0.0821
     49  ND1        7.9040  -14.8680   -6.7930 N.ar  423  HIS423     -0.2267
     50  CD2        7.2990  -12.8480   -6.2400 C.ar  423  HIS423      0.1154
     51  CE1        8.9930  -14.1220   -6.8010 C.ar  423  HIS423      0.1986
     52  NE2        8.6530  -12.8910   -6.4740 N.ar  423  HIS423     -0.2212
     53  N          5.6010  -17.5680   -5.0660 N.am  424  TYR424     -0.1960
     54  CA         6.3490  -18.7890   -4.8500 C.3   424  TYR424      0.1771
     55  C          6.0010  -19.7130   -6.0090 C.2   424  TYR424      0.2619
     56  O          4.8260  -20.0010   -6.2310 O.2   424  TYR424     -0.2715
     57  CB         5.9470  -19.4440   -3.5230 C.3   424  TYR424      0.0574
     58  CG         6.6830  -20.7280   -3.2420 C.ar  424  TYR424     -0.0198
     59  CD1        7.9950  -20.7180   -2.7430 C.ar  424  TYR424     -0.0009
     60  CD2        6.0750  -21.9530   -3.4690 C.ar  424  TYR424     -0.0009
     61  CE1        8.6830  -21.9100   -2.4970 C.ar  424  TYR424      0.0417
     62  CE2        6.7360  -23.1450   -3.2160 C.ar  424  TYR424      0.0417
     63  CZ         8.0370  -23.1160   -2.7330 C.ar  424  TYR424      0.1957
     64  OH         8.6670  -24.3080   -2.4700 O.3   424  TYR424     -0.2866
     65  N          7.0190  -20.1560   -6.7520 N.am  425  GLU425     -0.1963
     66  CA         6.8280  -20.8610   -8.0240 C.3   425  GLU425      0.1733
     67  C          5.8640  -20.0800   -8.9150 C.2   425  GLU425      0.2616
     68  O          5.0010  -20.6640   -9.5830 O.2   425  GLU425     -0.2715
     69  CB         6.3040  -22.2760   -7.8030 C.3   425  GLU425      0.0429
     70  CG         7.2520  -23.1740   -7.0620 C.3   425  GLU425      0.1163
     71  CD         6.6190  -24.5000   -6.6910 C.2   425  GLU425      0.3649
     72  OE1        5.4610  -24.5040   -6.1990 O.co2 425  GLU425     -0.2457
     73  OE2        7.2930  -25.5380   -6.8750 O.co2 425  GLU425     -0.2457
     74  N          6.0140  -18.7590   -8.8670 N.am  426  ASN426     -0.1972
     75  CA         5.2090  -17.7810   -9.6030 C.3   426  ASN426      0.1688
     76  C          3.7450  -17.6270   -9.2140 C.2   426  ASN426      0.2292
     77  O          3.1110  -16.6830   -9.6510 O.2   426  ASN426     -0.2864
     78  CB         5.3510  -17.9600  -11.1180 C.3   426  ASN426      0.1181
     79  CG         6.7360  -17.6230  -11.6000 C.2   426  ASN426      0.2629
     80  OD1        7.2600  -16.5400  -11.3150 O.2   426  ASN426     -0.2716
     81  ND2        7.3510  -18.5490  -12.3160 N.am  426  ASN426     -0.0877
     82  N         15.1330  -14.0830    0.7870 N.3   437  LEU437     -0.1245
     83  CA        14.3230  -14.4110   -0.3820 C.3   437  LEU437      0.1561
     84  C         12.8290  -14.1270   -0.1280 C.2   437  LEU437      0.2260
     85  O         12.1900  -13.4280   -0.9270 O.2   437  LEU437     -0.2867
     86  CB        14.5640  -15.8580   -0.8250 C.3   437  LEU437      0.0270
     87  CG        13.7420  -16.4280   -1.9880 C.3   437  LEU437      0.0019
     88  CD1       13.9430  -15.6610   -3.2900 C.3   437  LEU437      0.0001
     89  CD2       14.1010  -17.8940   -2.1770 C.3   437  LEU437      0.0001
     90  N         10.3650  -11.8890   -2.3510 N.3   441  ASP441     -0.1239
     91  CA         9.1240  -12.5000   -2.8460 C.3   441  ASP441      0.1674
     92  C          7.8550  -11.7560   -2.4120 C.2   441  ASP441      0.2266
     93  O          6.8120  -11.8610   -3.0750 O.2   441  ASP441     -0.2867
     94  CB         9.0490  -13.9750   -2.3970 C.3   441  ASP441      0.1410
     95  CG         9.9570  -14.8790   -3.1940 C.2   441  ASP441      0.3668
     96  OD1       10.5220  -14.4100   -4.2080 O.co2 441  ASP441     -0.2456
     97  OD2       10.1080  -16.0760   -2.8330 O.co2 441  ASP441     -0.2456
@<TRIPOS>BOND
     1    31    29    1
     2    21    22    1
     3    26    27    1
     4    26    25    1
     5    28    29    2
     6    28    27    1
     7    22    25    1
     8    22    23    1
     9    29    30    1
    10    23    24    2
    11    81    79   am
    12    12    11    2
    13    16    18   ar
    14    16    14   ar
    15    11    10    1
    16    79    80    2
    17    79    78    1
    18    13    10    1
    19    13    14    1
    20    18    19   ar
    21    78    75    1
    22    10     9    1
    23    14    15   ar
    24    19    20    1
    25    19    17   ar
    26     4     3    2
    27    77    76    2
    28     9     3   am
    29    75    76    1
    30    75    74    1
    31    68    67    2
    32    15    17   ar
    33     3     2    1
    34    67    74   am
    35    67    66    1
    36    66    69    1
    37    66    65    1
    38    69    70    1
    39     2     1    1
    40     2     5    1
    41    70    71    1
    42    73    71   ar
    43    51    49   ar
    44    51    52   ar
    45    49    48   ar
    46    65    55   am
    47    71    72   ar
    48     5     6    1
    49    52    50   ar
    50    48    47    1
    51    48    50   ar
    52     7     6    2
    53    47    44    1
    54     6     8   am
    55    56    55    2
    56    55    54    1
    57    53    54    1
    58    53    45   am
    59    44    45    1
    60    44    43    1
    61    54    57    1
    62    45    46    2
    63    96    95   ar
    64    43    34   am
    65    57    58    1
    66    60    58   ar
    67    60    62   ar
    68    88    87    1
    69    58    59   ar
    70    62    63   ar
    71    95    97   ar
    72    95    94    1
    73    93    92    2
    74    34    35    2
    75    34    33    1
    76    91    92    1
    77    91    94    1
    78    91    90    1
    79    59    61   ar
    80    63    61   ar
    81    63    64    1
    82    89    87    1
    83    87    86    1
    84    33    32    1
    85    33    36    1
    86    39    38    1
    87    39    40    2
    88    85    84    2
    89    86    83    1
    90    36    37    1
    91    38    37    1
    92    42    40    1
    93    83    84    1
    94    83    82    1
    95    40    41    1
