@<TRIPOS>MOLECULE
tmp/3akiA00.pdb
 108 105 0 0 0
SMALL
GASTEIGER

@<TRIPOS>ATOM
      1  N        -16.6960   19.3040  -36.9920 N.3    69  TRP69      -0.1241
      2  CA       -16.3010   18.0010  -36.4320 C.3    69  TRP69       0.1605
      3  C        -14.8000   17.7840  -36.1890 C.2    69  TRP69       0.2264
      4  O        -13.9590   18.1240  -37.0310 O.2    69  TRP69      -0.2867
      5  CB       -16.7620   16.8720  -37.3480 C.3    69  TRP69       0.0550
      6  CG       -18.2450   16.6330  -37.4090 C.ar   69  TRP69       0.0003
      7  CD1      -19.2090   17.1340  -36.5700 C.ar   69  TRP69       0.0946
      8  CD2      -18.9240   15.7770  -38.3340 C.ar   69  TRP69       0.0152
      9  NE1      -20.4460   16.6640  -36.9350 N.ar   69  TRP69      -0.2442
     10  CE2      -20.3020   15.8260  -38.0130 C.ar   69  TRP69       0.0810
     11  CE3      -18.5050   14.9790  -39.4120 C.ar   69  TRP69       0.0012
     12  CZ2      -21.2640   15.1080  -38.7360 C.ar   69  TRP69       0.0191
     13  CZ3      -19.4650   14.2610  -40.1290 C.ar   69  TRP69       0.0001
     14  CH2      -20.8270   14.3300  -39.7860 C.ar   69  TRP69       0.0015
     15  N        -23.8550   17.4810  -45.8140 N.3    93  TRP93      -0.1241
     16  CA       -23.1450   16.2050  -45.9360 C.3    93  TRP93       0.1605
     17  C        -21.9530   16.2510  -46.8970 C.2    93  TRP93       0.2264
     18  O        -21.3000   15.2310  -47.1360 O.2    93  TRP93      -0.2867
     19  CB       -24.1170   15.0670  -46.2840 C.3    93  TRP93       0.0550
     20  CG       -24.8780   14.5800  -45.0710 C.ar   93  TRP93       0.0003
     21  CD1      -26.0460   15.0980  -44.5650 C.ar   93  TRP93       0.0946
     22  CD2      -24.5110   13.4950  -44.1990 C.ar   93  TRP93       0.0152
     23  NE1      -26.4300   14.3950  -43.4380 N.ar   93  TRP93      -0.2442
     24  CE2      -25.5090   13.4080  -43.1920 C.ar   93  TRP93       0.0810
     25  CE3      -23.4440   12.5790  -44.1780 C.ar   93  TRP93       0.0012
     26  CZ2      -25.4660   12.4470  -42.1700 C.ar   93  TRP93       0.0191
     27  CZ3      -23.4010   11.6190  -43.1550 C.ar   93  TRP93       0.0001
     28  CH2      -24.4110   11.5630  -42.1680 C.ar   93  TRP93       0.0015
     29  N        -16.6270   13.0460  -49.4630 N.3   125  PHE125     -0.1241
     30  CA       -16.6930   13.0830  -48.0050 C.3   125  PHE125      0.1605
     31  C        -15.3240   12.8260  -47.3540 C.2   125  PHE125      0.2264
     32  O        -14.7770   11.7380  -47.4760 O.2   125  PHE125     -0.2867
     33  CB       -17.6900   12.0030  -47.5790 C.3   125  PHE125      0.0534
     34  CG       -18.0750   12.0440  -46.1310 C.ar  125  PHE125     -0.0203
     35  CD1      -19.0130   12.9650  -45.6670 C.ar  125  PHE125     -0.0042
     36  CD2      -17.5490   11.1170  -45.2360 C.ar  125  PHE125     -0.0042
     37  CE1      -19.4030   12.9760  -44.3100 C.ar  125  PHE125     -0.0003
     38  CE2      -17.9290   11.1240  -43.8690 C.ar  125  PHE125     -0.0003
     39  CZ       -18.8520   12.0540  -43.4120 C.ar  125  PHE125     -0.0000
     40  N        -12.7460   13.8480  -43.7730 N.3   127  LEU127     -0.1245
     41  CA       -12.6960   14.3640  -42.4080 C.3   127  LEU127      0.1561
     42  C        -11.5550   13.7350  -41.6010 C.2   127  LEU127      0.2260
     43  O        -10.8230   12.8590  -42.1040 O.2   127  LEU127     -0.2867
     44  CB       -14.0370   14.1030  -41.6890 C.3   127  LEU127      0.0270
     45  CG       -14.4370   12.6500  -41.3820 C.3   127  LEU127      0.0019
     46  CD1      -15.7510   12.6670  -40.6110 C.3   127  LEU127      0.0001
     47  CD2      -14.5960   11.7840  -42.6170 C.3   127  LEU127      0.0001
     48  N        -18.2830    3.7580  -46.3280 N.3   152  ASN152     -0.1225
     49  CA       -18.3620    5.1750  -45.9460 C.3   152  ASN152      0.1785
     50  C        -17.0400    5.9320  -46.1100 C.2   152  ASN152      0.2597
     51  O        -16.9860    6.9240  -46.8420 O.2   152  ASN152     -0.2718
     52  CB       -18.9050    5.3580  -44.5280 C.3   152  ASN152      0.1169
     53  CG       -20.4140    5.2810  -44.4680 C.2   152  ASN152      0.2627
     54  OD1      -21.0230    4.3870  -45.0610 O.2   152  ASN152     -0.2716
     55  ND2      -21.0290    6.2160  -43.7450 N.am  152  ASN152     -0.0877
     56  N        -15.9940    5.4790  -45.4140 N.am  153  THR153     -0.1953
     57  CA       -14.6430    6.0490  -45.5460 C.3   153  THR153      0.1897
     58  C        -13.5420    5.0060  -45.3950 C.2   153  THR153      0.2313
     59  O        -13.6930    3.9910  -44.6810 O.2   153  THR153     -0.2863
     60  CB       -14.3440    7.2140  -44.5460 C.3   153  THR153      0.1794
     61  OG1      -14.6590    6.8100  -43.2120 O.3   153  THR153     -0.2208
     62  CG2      -15.1180    8.4670  -44.8810 C.3   153  THR153      0.0378
     63  N        -22.2040    0.7020  -40.3610 N.3   185  TYR185     -0.1241
     64  CA       -21.5890    1.3350  -41.5290 C.3   185  TYR185      0.1605
     65  C        -20.2120    0.7370  -41.7650 C.2   185  TYR185      0.2264
     66  O        -19.5950    0.2060  -40.8380 O.2   185  TYR185     -0.2867
     67  CB       -21.4670    2.8360  -41.3230 C.3   185  TYR185      0.0534
     68  CG       -22.7870    3.5390  -41.2180 C.ar  185  TYR185     -0.0201
     69  CD1      -23.5870    3.7200  -42.3440 C.ar  185  TYR185     -0.0009
     70  CD2      -23.2410    4.0250  -39.9970 C.ar  185  TYR185     -0.0009
     71  CE1      -24.8110    4.3770  -42.2590 C.ar  185  TYR185      0.0417
     72  CE2      -24.4670    4.6820  -39.8970 C.ar  185  TYR185      0.0417
     73  CZ       -25.2450    4.8490  -41.0330 C.ar  185  TYR185      0.1957
     74  OH       -26.4500    5.4950  -40.9510 O.3   185  TYR185     -0.2866
     75  N        -16.8710    1.6710  -42.0010 N.3   187  VAL187     -0.1245
     76  CA       -16.1120    2.8860  -41.6430 C.3   187  VAL187      0.1561
     77  C        -14.6710    2.5840  -41.1960 C.2   187  VAL187      0.2260
     78  O        -14.4270    1.6340  -40.4510 O.2   187  VAL187     -0.2867
     79  CB       -16.8310    3.7120  -40.5300 C.3   187  VAL187      0.0252
     80  CG1      -15.9970    4.9260  -40.1120 C.3   187  VAL187      0.0019
     81  CG2      -18.1860    4.1940  -40.9980 C.3   187  VAL187      0.0019
     82  N        -12.2150    5.6170  -39.7880 N.3   189  GLU189     -0.1245
     83  CA       -12.0980    7.0650  -39.5580 C.3   189  GLU189      0.1567
     84  C        -11.1510    7.3540  -38.3760 C.2   189  GLU189      0.2260
     85  O        -10.5780    6.4290  -37.8150 O.2   189  GLU189     -0.2867
     86  CB       -13.4860    7.7080  -39.3460 C.3   189  GLU189      0.0388
     87  CG       -14.1460    7.5060  -37.9680 C.3   189  GLU189      0.1160
     88  CD       -15.6400    7.8940  -37.9710 C.2   189  GLU189      0.3649
     89  OE1      -16.1360    8.3550  -39.0260 O.co2 189  GLU189     -0.2457
     90  OE2      -16.3200    7.7650  -36.9280 O.co2 189  GLU189     -0.2457
     91  N        -16.5790    0.9150  -37.5770 N.3   207  SER207     -0.1202
     92  CA       -18.0290    0.6990  -37.4050 C.3   207  SER207      0.2020
     93  C        -18.7740    1.9700  -37.0590 C.2   207  SER207      0.2619
     94  O        -18.1730    3.0480  -36.9740 O.2   207  SER207     -0.2717
     95  CB       -18.3240   -0.4120  -36.3870 C.3   207  SER207      0.2103
     96  OG       -18.0060   -1.6750  -36.9410 O.3   207  SER207     -0.2182
     97  N        -20.0900    1.8440  -36.8690 N.am  208  ALA208     -0.1965
     98  CA       -20.9460    2.9710  -36.4670 C.3   208  ALA208      0.1728
     99  C        -20.4920    3.5350  -35.1380 C.2   208  ALA208      0.2616
    100  O        -19.8640    2.8230  -34.3500 O.2   208  ALA208     -0.2715
    101  CB       -22.4150    2.5220  -36.3660 C.3   208  ALA208      0.0334
    102  N        -20.8210    4.8020  -34.8860 N.am  209  THR209     -0.1951
    103  CA       -20.4270    5.4630  -33.6490 C.3   209  THR209      0.1897
    104  C        -21.3140    5.0430  -32.4720 C.2   209  THR209      0.2313
    105  O        -21.5060    5.8140  -31.5330 O.2   209  THR209     -0.2863
    106  CB       -20.4180    7.0240  -33.7710 C.3   209  THR209      0.1794
    107  OG1      -21.7160    7.4920  -34.1640 O.3   209  THR209     -0.2208
    108  CG2      -19.3760    7.5040  -34.7780 C.3   209  THR209      0.0378
@<TRIPOS>BOND
     1    29    30    1
     2    30    33    1
     3    30    31    1
     4    33    34    1
     5    32    31    2
     6    18    17    2
     7    17    16    1
     8    51    50    2
     9    48    49    1
    10    19    16    1
    11    19    20    1
    12    34    35   ar
    13    34    36   ar
    14    50    49    1
    15    50    56   am
    16    49    52    1
    17    16    15    1
    18    35    37   ar
    19    57    56    1
    20    57    58    1
    21    57    60    1
    22    58    59    2
    23    36    38   ar
    24    20    21   ar
    25    20    22   ar
    26    54    53    2
    27    62    60    1
    28    21    23   ar
    29    60    61    1
    30    52    53    1
    31    53    55   am
    32    37    39   ar
    33    22    25   ar
    34    22    24   ar
    35    25    27   ar
    36    38    39   ar
    37    40    41    1
    38    23    24   ar
    39    24    26   ar
    40    27    28   ar
    41    47    45    1
    42    41    44    1
    43    41    42    1
    44    69    71   ar
    45    69    68   ar
    46    71    73   ar
    47    26    28   ar
    48    43    42    2
    49    75    76    1
    50    65    64    1
    51    65    66    2
    52    44    45    1
    53    76    77    1
    54    76    79    1
    55    64    67    1
    56    64    63    1
    57    45    46    1
    58    67    68    1
    59    68    70   ar
    60    77    78    2
    61    73    74    1
    62    73    72   ar
    63    81    79    1
    64    79    80    1
    65    13    14   ar
    66    13    11   ar
    67    70    72   ar
    68    82    83    1
    69    14    12   ar
    70    83    86    1
    71    83    84    1
    72    11     8   ar
    73    86    87    1
    74    89    88   ar
    75    12    10   ar
    76    84    85    2
    77     8    10   ar
    78     8     6   ar
    79    10     9   ar
    80    88    87    1
    81    88    90   ar
    82    91    92    1
    83     6     5    1
    84     6     7   ar
    85    92    93    1
    86    92    95    1
    87     5     2    1
    88    93    94    2
    89    93    97   am
    90     4     3    2
    91     1     2    1
    92    96    95    1
    93     9     7   ar
    94    97    98    1
    95    98   101    1
    96    98    99    1
    97     2     3    1
    98    99   102   am
    99    99   100    2
   100   102   103    1
   101   108   106    1
   102   107   106    1
   103   106   103    1
   104   103   104    1
   105   104   105    2
