@<TRIPOS>MOLECULE
tmp/3akkA00.pdb
 156 149 0 0 0
SMALL
GASTEIGER

@<TRIPOS>ATOM
      1  N         -1.0770   34.2620   18.5890 N.3    16  PHE16      -0.1227
      2  CA        -1.4530   33.6390   17.3300 C.3    16  PHE16       0.1736
      3  C         -1.6880   32.1440   17.5240 C.2    16  PHE16       0.2596
      4  O         -0.9720   31.4970   18.2770 O.2    16  PHE16      -0.2718
      5  CB        -0.3260   33.8290   16.3100 C.3    16  PHE16       0.0547
      6  CG         0.0180   35.2540   16.0340 C.ar   16  PHE16      -0.0202
      7  CD1       -0.6570   35.9610   15.0540 C.ar   16  PHE16      -0.0042
      8  CD2        1.0400   35.8820   16.7360 C.ar   16  PHE16      -0.0042
      9  CE1       -0.3440   37.2590   14.7830 C.ar   16  PHE16      -0.0003
     10  CE2        1.3600   37.1850   16.4720 C.ar   16  PHE16      -0.0003
     11  CZ         0.6670   37.8800   15.4890 C.ar   16  PHE16      -0.0000
     12  N         -2.6510   31.5840   16.8080 N.am   17  GLY17      -0.1942
     13  CA        -2.9800   30.1850   16.9860 C.3    17  GLY17       0.2014
     14  C         -2.0720   29.2100   16.2630 C.2    17  GLY17       0.2639
     15  O         -0.8980   29.5090   15.9980 O.2    17  GLY17      -0.2714
     16  N         -2.6330   28.0380   15.9550 N.am   18  GLY18      -0.1939
     17  CA        -1.9580   26.9830   15.2100 C.3    18  GLY18       0.2014
     18  C         -1.1140   26.1120   16.1200 C.2    18  GLY18       0.2639
     19  O         -0.7860   26.5090   17.2390 O.2    18  GLY18      -0.2714
     20  N         -0.7280   24.9370   15.6430 N.am   19  ALA19      -0.1963
     21  CA         0.0110   23.9950   16.4850 C.3    19  ALA19       0.1728
     22  C          1.5060   23.8230   16.1290 C.2    19  ALA19       0.2616
     23  O          2.2530   23.1890   16.8680 O.2    19  ALA19      -0.2715
     24  CB        -0.7120   22.6260   16.5110 C.3    19  ALA19       0.0334
     25  N          1.9420   24.3780   15.0070 N.am   20  ASN20      -0.1972
     26  CA         3.3270   24.1970   14.5730 C.3    20  ASN20       0.1688
     27  C          4.3220   25.2430   15.0930 C.2    20  ASN20       0.2292
     28  O          4.9970   25.9150   14.3140 O.2    20  ASN20      -0.2864
     29  CB         3.3990   24.1210   13.0500 C.3    20  ASN20       0.1181
     30  CG         2.6460   22.9270   12.4970 C.2    20  ASN20       0.2629
     31  OD1        2.6410   21.8520   13.1080 O.2    20  ASN20      -0.2716
     32  ND2        1.9980   23.1060   11.3370 N.am   20  ASN20      -0.0877
     33  N          4.8160   31.7510   18.3140 N.3    23  LYS23      -0.1245
     34  CA         4.6210   32.9800   17.5560 C.3    23  LYS23       0.1561
     35  C          4.6820   34.1690   18.4900 C.2    23  LYS23       0.2260
     36  O          4.1570   34.0980   19.5820 O.2    23  LYS23      -0.2867
     37  CB         3.2710   32.9780   16.8350 C.3    23  LYS23       0.0271
     38  CG         3.1680   32.0570   15.6270 C.3    23  LYS23       0.0035
     39  CD         2.7780   30.6700   16.0660 C.3    23  LYS23       0.0206
     40  CE         2.3310   29.7870   14.9100 C.3    23  LYS23       0.1093
     41  NZ         1.7390   28.5450   15.5030 N.3    23  LYS23      -0.1314
     42  N          3.9870   38.7950   12.4580 N.3    34  MET34      -0.1245
     43  CA         3.8640   37.5620   13.2140 C.3    34  MET34       0.1570
     44  C          5.1300   36.7640   13.0380 C.2    34  MET34       0.2261
     45  O          5.3310   36.1720   11.9830 O.2    34  MET34      -0.2867
     46  CB         2.7170   36.7180   12.6830 C.3    34  MET34       0.0387
     47  CG         2.6330   35.3620   13.3630 C.3    34  MET34       0.0595
     48  SD         1.2990   34.3380   12.7290 S.3    34  MET34      -0.1393
     49  CE         2.0520   33.7430   11.2000 C.3    34  MET34       0.0692
     50  N          7.2340   33.5530   13.4360 N.3    36  LYS36      -0.1245
     51  CA         7.0810   32.1330   13.7850 C.3    36  LYS36       0.1561
     52  C          8.3990   31.4270   14.1140 C.2    36  LYS36       0.2260
     53  O          9.4160   31.6770   13.4910 O.2    36  LYS36      -0.2867
     54  CB         6.3900   31.3450   12.6760 C.3    36  LYS36       0.0271
     55  CG         5.0320   31.8250   12.2810 C.3    36  LYS36       0.0035
     56  CD         4.2690   30.7310   11.5410 C.3    36  LYS36       0.0206
     57  CE         4.8640   30.3410   10.1800 C.3    36  LYS36       0.1093
     58  NZ         3.9800   29.3200    9.5460 N.3    36  LYS36      -0.1314
     59  N          8.1070   28.2100    4.1810 N.3    56  GLU56      -0.1245
     60  CA         7.1810   29.3090    4.3480 C.3    56  GLU56       0.1567
     61  C          7.6990   30.5430    3.5980 C.2    56  GLU56       0.2260
     62  O          6.9690   31.1520    2.8120 O.2    56  GLU56      -0.2867
     63  CB         6.9860   29.5930    5.8440 C.3    56  GLU56       0.0388
     64  CG         5.9380   30.6440    6.1620 C.3    56  GLU56       0.1160
     65  CD         4.5490   30.1970    5.7800 C.2    56  GLU56       0.3649
     66  OE1        4.1030   30.5240    4.6560 O.co2  56  GLU56      -0.2457
     67  OE2        3.9070   29.5120    6.6100 O.co2  56  GLU56      -0.2457
     68  N          1.1340   36.7800    2.1280 N.3    71  GLN71      -0.1245
     69  CA         1.8430   37.4720    3.2020 C.3    71  GLN71       0.1566
     70  C          3.3060   37.6530    2.8360 C.2    71  GLN71       0.2260
     71  O          3.8830   36.7550    2.2360 O.2    71  GLN71      -0.2867
     72  CB         1.7350   36.6570    4.5000 C.3    71  GLN71       0.0367
     73  CG         2.0630   35.1570    4.3230 C.3    71  GLN71       0.0905
     74  CD         2.2500   34.4160    5.6500 C.2    71  GLN71       0.2608
     75  OE1        1.9170   34.9380    6.7080 O.2    71  GLN71      -0.2717
     76  NE2        2.7870   33.2020    5.5890 N.am   71  GLN71      -0.0878
     77  N          6.3350   37.0510    9.3070 N.3    86  CYS86      -0.1221
     78  CA         5.3240   37.2270    8.2750 C.3    86  CYS86       0.1808
     79  C          4.5250   38.4770    8.5810 C.2    86  CYS86       0.2601
     80  O          3.8930   38.5590    9.6350 O.2    86  CYS86      -0.2717
     81  CB         4.3620   36.0370    8.2720 C.3    86  CYS86       0.0970
     82  SG         5.1090   34.4030    8.4580 S.3    86  CYS86      -0.0800
     83  N          4.5220   39.4470    7.6760 N.am   87  LYS87      -0.1965
     84  CA         3.7640   40.6670    7.9470 C.3    87  LYS87       0.1728
     85  C          2.3350   40.3460    8.4070 C.2    87  LYS87       0.2616
     86  O          1.6080   39.6190    7.7350 O.2    87  LYS87      -0.2715
     87  CB         3.7380   41.6080    6.7420 C.3    87  LYS87       0.0311
     88  CG         3.3530   43.0370    7.1130 C.3    87  LYS87       0.0038
     89  CD         2.6910   43.7350    5.9570 C.3    87  LYS87       0.0206
     90  CE         3.0960   45.1770    5.8810 C.3    87  LYS87       0.1093
     91  NZ         4.5330   45.2990    5.4910 N.3    87  LYS87      -0.1314
     92  N          1.9710   40.8930    9.5640 N.am   88  ASP88      -0.1957
     93  CA         0.6710   40.7170   10.2010 C.3    88  ASP88       0.1840
     94  C         -0.4150   41.4530    9.4270 C.2    88  ASP88       0.2622
     95  O         -0.3510   42.6710    9.2720 O.2    88  ASP88      -0.2715
     96  CB         0.7460   41.2670   11.6250 C.3    88  ASP88       0.1450
     97  CG        -0.4950   40.9750   12.4430 C.2    88  ASP88       0.3671
     98  OD1       -0.3960   41.0010   13.6880 O.co2  88  ASP88      -0.2456
     99  OD2       -1.5730   40.7300   11.8610 O.co2  88  ASP88      -0.2456
    100  N         -1.4130   40.7060    8.9560 N.am   89  PHE89      -0.1960
    101  CA        -2.5100   41.2580    8.1640 C.3    89  PHE89       0.1771
    102  C         -3.8410   41.3850    8.9360 C.2    89  PHE89       0.2620
    103  O         -4.8380   41.8680    8.3900 O.2    89  PHE89      -0.2715
    104  CB        -2.7040   40.4660    6.8450 C.3    89  PHE89       0.0574
    105  CG        -2.8940   38.9710    7.0360 C.ar   89  PHE89      -0.0200
    106  CD1       -1.9740   38.0710    6.5210 C.ar   89  PHE89      -0.0042
    107  CD2       -3.9910   38.4690    7.7280 C.ar   89  PHE89      -0.0042
    108  CE1       -2.1410   36.7200    6.6880 C.ar   89  PHE89      -0.0003
    109  CE2       -4.1600   37.0960    7.8980 C.ar   89  PHE89      -0.0003
    110  CZ        -3.2310   36.2250    7.3840 C.ar   89  PHE89      -0.0000
    111  N         -3.8610   40.9480   10.1950 N.am   90  THR90      -0.1951
    112  CA        -5.0330   41.1520   11.0570 C.3    90  THR90       0.1897
    113  C         -4.8280   42.3810   11.9410 C.2    90  THR90       0.2313
    114  O         -5.2130   42.4260   13.0990 O.2    90  THR90      -0.2863
    115  CB        -5.2850   39.9460   11.9430 C.3    90  THR90       0.1794
    116  OG1       -4.0460   39.5510   12.5420 O.3    90  THR90      -0.2208
    117  CG2       -5.8440   38.8060   11.1240 C.3    90  THR90       0.0378
    118  N         -9.1680   37.6360   11.3070 N.3    96  LEU96      -0.1245
    119  CA        -9.0960   36.5240   10.3860 C.3    96  LEU96       0.1561
    120  C        -10.1740   35.5170   10.7760 C.2    96  LEU96       0.2260
    121  O        -10.2110   35.0240   11.9070 O.2    96  LEU96      -0.2867
    122  CB        -7.7090   35.8850   10.4180 C.3    96  LEU96       0.0270
    123  CG        -7.5740   34.5880    9.6200 C.3    96  LEU96       0.0019
    124  CD1       -7.7940   34.8260    8.1340 C.3    96  LEU96       0.0001
    125  CD2       -6.2190   33.9830    9.8770 C.3    96  LEU96       0.0001
    126  N         -8.5040   25.5590    7.7070 N.3   158  GLY158     -0.1210
    127  CA        -8.0370   26.6550    8.5430 C.3   158  GLY158      0.1956
    128  C         -6.7520   27.3170    8.0270 C.2   158  GLY158      0.2611
    129  O         -6.2020   28.2200    8.6660 O.2   158  GLY158     -0.2717
    130  N         -6.2700   26.8690    6.8700 N.am  159  ASN159     -0.1974
    131  CA        -5.0670   27.4500    6.2820 C.3   159  ASN159      0.1688
    132  C         -5.3940   28.3950    5.1430 C.2   159  ASN159      0.2292
    133  O         -4.5870   28.6070    4.2520 O.2   159  ASN159     -0.2864
    134  CB        -4.0680   26.3740    5.8430 C.3   159  ASN159      0.1181
    135  CG        -3.1870   25.9050    6.9930 C.2   159  ASN159      0.2629
    136  OD1       -3.1420   26.5440    8.0500 O.2   159  ASN159     -0.2716
    137  ND2       -2.4900   24.7880    6.7990 N.am  159  ASN159     -0.0877
    138  N         -1.6030   32.4210    3.3490 N.3   177  PHE177     -0.1227
    139  CA        -0.6850   32.3550    4.4790 C.3   177  PHE177      0.1736
    140  C         -0.4070   30.8980    4.7090 C.2   177  PHE177      0.2595
    141  O         -0.9310   30.0590    3.9870 O.2   177  PHE177     -0.2718
    142  CB        -1.2590   33.0300    5.7630 C.3   177  PHE177      0.0547
    143  CG        -2.5320   32.3800    6.3220 C.ar  177  PHE177     -0.0202
    144  CD1       -3.7960   32.7780    5.8740 C.ar  177  PHE177     -0.0042
    145  CD2       -2.4570   31.4060    7.3090 C.ar  177  PHE177     -0.0042
    146  CE1       -4.9530   32.2050    6.3710 C.ar  177  PHE177     -0.0003
    147  CE2       -3.6130   30.8160    7.8230 C.ar  177  PHE177     -0.0003
    148  CZ        -4.8640   31.2150    7.3500 C.ar  177  PHE177     -0.0000
    149  N          0.4020   30.5990    5.7180 N.am  178  ASP178     -0.1974
    150  CA         0.8230   29.2270    6.0100 C.3   178  ASP178      0.1709
    151  C          1.1190   28.4070    4.7450 C.2   178  ASP178      0.2293
    152  O          0.3460   27.5160    4.3570 O.2   178  ASP178     -0.2864
    153  CB        -0.1940   28.5050    6.9100 C.3   178  ASP178      0.1436
    154  CG         0.4030   27.2790    7.6130 C.2   178  ASP178      0.3671
    155  OD1        1.5890   26.9470    7.3590 O.co2 178  ASP178     -0.2456
    156  OD2       -0.3130   26.6430    8.4240 O.co2 178  ASP178     -0.2456
@<TRIPOS>BOND
     1    68    69    1
     2    71    70    2
     3    62    61    2
     4    70    69    1
     5    69    72    1
     6   138   139    1
     7    61    60    1
     8   141   140    2
     9    59    60    1
    10   133   132    2
    11    73    72    1
    12    73    74    1
    13    60    63    1
    14   152   151    2
    15   139   140    1
    16   139   142    1
    17    66    65   ar
    18   140   149   am
    19   151   150    1
    20   132   131    1
    21    91    90    1
    22    76    74   am
    23    74    75    2
    24   149   150    1
    25   142   143    1
    26    65    64    1
    27    65    67   ar
    28   134   131    1
    29   134   135    1
    30    63    64    1
    31   144   143   ar
    32   144   146   ar
    33    90    89    1
    34    89    88    1
    35   150   153    1
    36   131   130    1
    37   143   145   ar
    38   146   148   ar
    39   106   108   ar
    40   106   105   ar
    41   108   110   ar
    42    87    88    1
    43    87    84    1
    44   137   135   am
    45   104   105    1
    46   104   101    1
    47   130   128   am
    48   153   154    1
    49   135   136    2
    50   105   107   ar
    51   145   147   ar
    52   148   147   ar
    53   155   154   ar
    54   110   109   ar
    55   154   156   ar
    56    83    84    1
    57    83    79   am
    58   126   127    1
    59   107   109   ar
    60    86    85    2
    61    84    85    1
    62   128   127    1
    63   128   129    2
    64   124   123    1
    65   101   102    1
    66   101   100    1
    67    81    78    1
    68    81    82    1
    69    78    79    1
    70    78    77    1
    71   103   102    2
    72    85    92   am
    73    79    80    2
    74   102   111   am
    75   100    94   am
    76    95    94    2
    77    94    93    1
    78    58    57    1
    79    92    93    1
    80   123   125    1
    81   123   122    1
    82    57    56    1
    83   111   112    1
    84    93    96    1
    85   119   122    1
    86   119   120    1
    87   119   118    1
    88   120   121    2
    89   112   113    1
    90   112   115    1
    91   117   115    1
    92    49    48    1
    93    32    30   am
    94    56    55    1
    95    96    97    1
    96    99    97   ar
    97   113   114    2
    98   115   116    1
    99    45    44    2
   100    55    54    1
   101    97    98   ar
   102    42    43    1
   103    30    29    1
   104    30    31    2
   105    54    51    1
   106    46    43    1
   107    46    47    1
   108    48    47    1
   109    44    43    1
   110    29    26    1
   111    50    51    1
   112    53    52    2
   113    51    52    1
   114    28    27    2
   115    26    25    1
   116    26    27    1
   117     9     7   ar
   118     9    11   ar
   119    40    41    1
   120    40    39    1
   121    25    22   am
   122     7     6   ar
   123    17    16    1
   124    17    18    1
   125    11    10   ar
   126    38    39    1
   127    38    37    1
   128    20    18   am
   129    20    21    1
   130    16    14   am
   131    15    14    2
   132     6     5    1
   133     6     8   ar
   134    18    19    2
   135    22    21    1
   136    22    23    2
   137    14    13    1
   138     5     2    1
   139    10     8   ar
   140    21    24    1
   141    12    13    1
   142    12     3   am
   143    37    34    1
   144     2     3    1
   145     2     1    1
   146     3     4    2
   147    34    33    1
   148    34    35    1
   149    35    36    2
