@<TRIPOS>MOLECULE
tmp/3aklB00.pdb
 179 170 0 0 0
SMALL
GASTEIGER

@<TRIPOS>ATOM
      1  N          2.1680   -9.0200   31.4160 N.3    16  PHE16      -0.1227
      2  CA         2.5310   -8.2240   30.2760 C.3    16  PHE16       0.1736
      3  C          2.7550   -6.8060   30.6920 C.2    16  PHE16       0.2596
      4  O          2.0550   -6.2800   31.5650 O.2    16  PHE16      -0.2718
      5  CB         1.4550   -8.3060   29.2140 C.3    16  PHE16       0.0547
      6  CG         1.2180   -9.6910   28.7110 C.ar   16  PHE16      -0.0202
      7  CD1        1.9180  -10.1720   27.6150 C.ar   16  PHE16      -0.0042
      8  CD2        0.2790  -10.5180   29.3280 C.ar   16  PHE16      -0.0042
      9  CE1        1.6890  -11.4540   27.1340 C.ar   16  PHE16      -0.0003
     10  CE2        0.0430  -11.7970   28.8560 C.ar   16  PHE16      -0.0003
     11  CZ         0.7510  -12.2690   27.7550 C.ar   16  PHE16      -0.0000
     12  N          3.7540   -6.1950   30.0650 N.am   17  GLY17      -0.1942
     13  CA         4.0960   -4.8190   30.3500 C.3    17  GLY17       0.2014
     14  C          3.0380   -3.8480   29.8700 C.2    17  GLY17       0.2639
     15  O          1.8480   -4.1690   29.7460 O.2    17  GLY17      -0.2714
     16  N          3.4850   -2.6310   29.6140 N.am   18  GLY18      -0.1939
     17  CA         2.6090   -1.6190   29.0810 C.3    18  GLY18       0.2014
     18  C          1.8420   -0.8690   30.1400 C.2    18  GLY18       0.2639
     19  O          1.4950   -1.4140   31.1910 O.2    18  GLY18      -0.2714
     20  N          1.5500    0.3920   29.8250 N.am   19  ALA19      -0.1963
     21  CA         0.9120    1.2960   30.7700 C.3    19  ALA19       0.1728
     22  C         -0.5200    1.7140   30.4060 C.2    19  ALA19       0.2616
     23  O         -0.9890    2.7450   30.8700 O.2    19  ALA19      -0.2715
     24  CB         1.7830    2.5160   30.9870 C.3    19  ALA19       0.0334
     25  N         -1.2160    0.9250   29.5930 N.am   20  ASN20      -0.1972
     26  CA        -2.6290    1.2000   29.3190 C.3    20  ASN20       0.1688
     27  C         -3.4720   -0.0300   29.5810 C.2    20  ASN20       0.2292
     28  O         -3.4860   -0.9610   28.7810 O.2    20  ASN20      -0.2864
     29  CB        -2.8680    1.6780   27.8770 C.3    20  ASN20       0.1181
     30  CG        -1.8390    2.7120   27.4110 C.2    20  ASN20       0.2629
     31  OD1       -1.3860    3.5600   28.1880 O.2    20  ASN20      -0.2716
     32  ND2       -1.4650    2.6370   26.1350 N.am   20  ASN20      -0.0877
     33  N         -3.7590   -6.7100   31.5450 N.3    23  LYS23      -0.1245
     34  CA        -3.7630   -7.8330   30.6240 C.3    23  LYS23       0.1561
     35  C         -3.4050   -9.1220   31.3400 C.2    23  LYS23       0.2260
     36  O         -2.5870   -9.1370   32.2520 O.2    23  LYS23      -0.2867
     37  CB        -2.8300   -7.6030   29.4160 C.3    23  LYS23       0.0271
     38  CG        -1.6050   -6.7150   29.6310 C.3    23  LYS23       0.0035
     39  CD        -1.9500   -5.2440   29.4550 C.3    23  LYS23       0.0206
     40  CE        -0.7070   -4.3650   29.4880 C.3    23  LYS23       0.1093
     41  NZ        -1.0050   -2.9200   29.3230 N.3    23  LYS23      -0.1314
     42  N         -2.5640  -12.9190   24.9850 N.3    34  MET34      -0.1245
     43  CA        -2.4670  -11.7780   25.8670 C.3    34  MET34       0.1570
     44  C         -3.7630  -11.0360   25.6700 C.2    34  MET34       0.2261
     45  O         -4.0680  -10.5950   24.5640 O.2    34  MET34      -0.2867
     46  CB        -1.3000  -10.8700   25.4920 C.3    34  MET34       0.0387
     47  CG        -1.3450   -9.5390   26.2290 C.3    34  MET34       0.0595
     48  SD        -0.2110   -8.2810   25.6200 S.3    34  MET34      -0.1393
     49  CE        -1.1240   -7.5320   24.2760 C.3    34  MET34       0.0692
     50  N         -5.7870   -7.8990   26.4500 N.3    36  LYS36      -0.1245
     51  CA        -5.7670   -6.5150   26.9190 C.3    36  LYS36       0.1561
     52  C         -7.1350   -6.1260   27.4490 C.2    36  LYS36       0.2260
     53  O         -8.1670   -6.5030   26.8920 O.2    36  LYS36      -0.2867
     54  CB        -5.3530   -5.5390   25.8000 C.3    36  LYS36       0.0271
     55  CG        -3.8940   -5.6710   25.3350 C.3    36  LYS36       0.0035
     56  CD        -3.2440   -4.3170   25.0380 C.3    36  LYS36       0.0206
     57  CE        -3.3910   -3.8910   23.5780 C.3    36  LYS36       0.1093
     58  NZ        -3.2680   -2.4080   23.4760 N.3    36  LYS36      -0.1314
     59  N         -0.0430   -9.1430   14.8620 N.3    62  GLN62      -0.1245
     60  CA        -0.6180  -10.0230   15.8700 C.3    62  GLN62       0.1566
     61  C         -2.0760  -10.3260   15.5280 C.2    62  GLN62       0.2260
     62  O         -2.7900   -9.4430   15.0540 O.2    62  GLN62      -0.2867
     63  CB        -0.5420   -9.3560   17.2400 C.3    62  GLN62       0.0367
     64  CG        -1.3380   -8.0760   17.3150 C.3    62  GLN62       0.0905
     65  CD        -1.1480   -7.3340   18.6300 C.2    62  GLN62       0.2608
     66  OE1       -0.7220   -7.9080   19.6300 O.2    62  GLN62      -0.2717
     67  NE2       -1.4640   -6.0390   18.6260 N.am   62  GLN62      -0.0878
     68  N         -5.1370  -10.7940   21.8790 N.3    77  CYS77      -0.1221
     69  CA        -4.0460  -10.7890   20.9170 C.3    77  CYS77       0.1808
     70  C         -3.2870  -12.0800   21.0780 C.2    77  CYS77       0.2601
     71  O         -2.8190  -12.3820   22.1690 O.2    77  CYS77      -0.2717
     72  CB        -3.1180   -9.6160   21.1910 C.3    77  CYS77       0.0970
     73  SG        -4.0160   -8.0830   21.3670 S.3    77  CYS77      -0.0800
     74  N         -3.1940  -12.8550   20.0040 N.am   78  LYS78      -0.1965
     75  CA        -2.5080  -14.1340   20.0640 C.3    78  LYS78       0.1728
     76  C         -1.1160  -13.8360   20.5730 C.2    78  LYS78       0.2616
     77  O         -0.5880  -12.7470   20.3520 O.2    78  LYS78      -0.2715
     78  CB        -2.4780  -14.7930   18.6890 C.3    78  LYS78       0.0311
     79  CG        -2.0950  -16.2660   18.6680 C.3    78  LYS78       0.0038
     80  CD        -2.2040  -16.7900   17.2410 C.3    78  LYS78       0.0206
     81  CE        -1.8700  -18.2740   17.0870 C.3    78  LYS78       0.1093
     82  NZ        -2.0400  -18.6830   15.6380 N.3    78  LYS78      -0.1314
     83  N         -0.5340  -14.7920   21.2780 N.am   79  ASP79      -0.1957
     84  CA         0.6570  -14.5280   22.0520 C.3    79  ASP79       0.1840
     85  C          1.8660  -15.0260   21.2800 C.2    79  ASP79       0.2622
     86  O          1.9780  -16.2200   21.0090 O.2    79  ASP79      -0.2715
     87  CB         0.5220  -15.2280   23.4040 C.3    79  ASP79       0.1450
     88  CG         1.6860  -14.9500   24.3420 C.2    79  ASP79       0.3671
     89  OD1        1.4350  -14.6170   25.5250 O.co2  79  ASP79      -0.2456
     90  OD2        2.8500  -15.0810   23.9060 O.co2  79  ASP79      -0.2456
     91  N          2.7660  -14.1120   20.9120 N.am   80  PHE80      -0.1960
     92  CA         3.9460  -14.4780   20.0930 C.3    80  PHE80       0.1771
     93  C          5.2560  -14.6210   20.8860 C.2    80  PHE80       0.2620
     94  O          6.3350  -14.6960   20.2840 O.2    80  PHE80      -0.2715
     95  CB         4.1470  -13.5270   18.8760 C.3    80  PHE80       0.0574
     96  CG         4.2580  -12.0670   19.2500 C.ar   80  PHE80      -0.0200
     97  CD1        3.2280  -11.1810   18.9560 C.ar   80  PHE80      -0.0042
     98  CD2        5.3870  -11.5870   19.9190 C.ar   80  PHE80      -0.0042
     99  CE1        3.3170   -9.8580   19.3200 C.ar   80  PHE80      -0.0003
    100  CE2        5.4920  -10.2520   20.2750 C.ar   80  PHE80      -0.0003
    101  CZ         4.4590   -9.3890   19.9850 C.ar   80  PHE80      -0.0000
    102  N          5.1590  -14.6450   22.2210 N.am   81  THR81      -0.1951
    103  CA         6.3190  -14.9250   23.0730 C.3    81  THR81       0.1897
    104  C          6.1250  -16.2140   23.8570 C.2    81  THR81       0.2313
    105  O          6.2720  -16.2530   25.0730 O.2    81  THR81      -0.2863
    106  CB         6.6780  -13.7500   24.0170 C.3    81  THR81       0.1794
    107  OG1        5.5220  -13.3270   24.7500 O.3    81  THR81      -0.2208
    108  CG2        7.2280  -12.5710   23.2130 C.3    81  THR81       0.0378
    109  N         10.7110  -11.4210   23.6200 N.3    87  LEU87      -0.1245
    110  CA        10.6180  -10.1740   22.8980 C.3    87  LEU87       0.1561
    111  C         11.6080   -9.1540   23.4570 C.2    87  LEU87       0.2260
    112  O         11.6040   -8.8680   24.6560 O.2    87  LEU87      -0.2867
    113  CB         9.2150   -9.6300   23.0260 C.3    87  LEU87       0.0270
    114  CG         8.9180   -8.3540   22.2660 C.3    87  LEU87       0.0019
    115  CD1        8.9300   -8.6500   20.7950 C.3    87  LEU87       0.0001
    116  CD2        7.5610   -7.8940   22.6790 C.3    87  LEU87       0.0001
    117  N         12.3490   -5.2120   22.5530 N.3    89  ASP89      -0.1239
    118  CA        11.8820   -4.1020   21.7100 C.3    89  ASP89       0.1674
    119  C         12.9860   -3.1580   21.2340 C.2    89  ASP89       0.2266
    120  O         14.1480   -3.2490   21.6360 O.2    89  ASP89      -0.2867
    121  CB        10.7510   -3.2960   22.3490 C.3    89  ASP89       0.1410
    122  CG        11.0710   -2.8400   23.7580 C.2    89  ASP89       0.3668
    123  OD1       12.2620   -2.8530   24.1620 O.co2  89  ASP89      -0.2456
    124  OD2       10.1020   -2.4760   24.4700 O.co2  89  ASP89      -0.2456
    125  N          1.3510    6.7770   18.5790 N.3   145  ASP145     -0.1239
    126  CA         2.2680    6.2920   19.5810 C.3   145  ASP145      0.1674
    127  C          3.0760    5.0850   19.1860 C.2   145  ASP145      0.2266
    128  O          3.0770    4.1080   19.8610 O.2   145  ASP145     -0.2867
    129  CB         1.4940    5.9470   20.8240 C.3   145  ASP145      0.1410
    130  CG         2.3490    5.8240   22.0270 C.2   145  ASP145      0.3668
    131  OD1        2.0150    5.0190   22.8820 O.co2 145  ASP145     -0.2456
    132  OD2        3.3350    6.5340   22.1490 O.co2 145  ASP145     -0.2456
    133  N          6.1270    4.3920   19.6380 N.3   147  HIS147     -0.1241
    134  CA         7.3920    4.6430   20.3090 C.3   147  HIS147      0.1621
    135  C          8.2540    3.3920   20.2530 C.2   147  HIS147      0.2264
    136  O          7.8590    2.3890   19.6520 O.2   147  HIS147     -0.2867
    137  CB         7.1830    5.0990   21.7520 C.3   147  HIS147      0.0745
    138  CG         6.5020    4.0880   22.6270 C.ar  147  HIS147      0.0817
    139  ND1        7.1250    2.9370   23.0680 N.ar  147  HIS147     -0.2268
    140  CD2        5.2620    4.0760   23.1770 C.ar  147  HIS147      0.1154
    141  CE1        6.2950    2.2550   23.8390 C.ar  147  HIS147      0.1986
    142  NE2        5.1570    2.9230   23.9200 N.ar  147  HIS147     -0.2212
    143  N          9.0920    1.2080   22.3150 N.3   149  GLY149     -0.1210
    144  CA         8.6070    0.0550   23.0400 C.3   149  GLY149      0.1956
    145  C          7.3890   -0.5550   22.3550 C.2   149  GLY149      0.2611
    146  O          6.7230   -1.4280   22.9030 O.2   149  GLY149     -0.2717
    147  N          7.0880   -0.0930   21.1470 N.am  150  ASN150     -0.1974
    148  CA         5.9600   -0.6450   20.4140 C.3   150  ASN150      0.1688
    149  C          6.3170   -1.3820   19.1340 C.2   150  ASN150      0.2292
    150  O          5.4620   -1.5590   18.2600 O.2   150  ASN150     -0.2864
    151  CB         4.9080    0.4160   20.1330 C.3   150  ASN150      0.1181
    152  CG         3.9070    0.5340   21.2440 C.2   150  ASN150      0.2629
    153  OD1        3.9350   -0.2430   22.1970 O.2   150  ASN150     -0.2716
    154  ND2        3.0120    1.5110   21.1360 N.am  150  ASN150     -0.0877
    155  N          2.7320   -4.9920   16.6940 N.3   164  PHE164     -0.1227
    156  CA         1.7840   -5.0850   17.7810 C.3   164  PHE164      0.1736
    157  C          1.4340   -3.7170   18.3280 C.2   164  PHE164      0.2595
    158  O          1.8210   -2.7020   17.7600 O.2   164  PHE164     -0.2718
    159  CB         2.3170   -5.9840   18.8870 C.3   164  PHE164      0.0547
    160  CG         3.5530   -5.4700   19.5700 C.ar  164  PHE164     -0.0202
    161  CD1        4.8080   -5.9340   19.2110 C.ar  164  PHE164     -0.0042
    162  CD2        3.4550   -4.5630   20.6190 C.ar  164  PHE164     -0.0042
    163  CE1        5.9590   -5.4840   19.8650 C.ar  164  PHE164     -0.0003
    164  CE2        4.6020   -4.1120   21.2890 C.ar  164  PHE164     -0.0003
    165  CZ         5.8600   -4.5750   20.9000 C.ar  164  PHE164     -0.0000
    166  N          0.6980   -3.7080   19.4310 N.am  165  ASP165     -0.1974
    167  CA         0.2250   -2.4780   20.0600 C.3   165  ASP165      0.1709
    168  C         -0.2460   -1.3910   19.0930 C.2   165  ASP165      0.2293
    169  O          0.2940   -0.2910   19.0940 O.2   165  ASP165     -0.2864
    170  CB         1.2880   -1.9000   20.9890 C.3   165  ASP165      0.1436
    171  CG         0.7160   -0.8630   21.9420 C.2   165  ASP165      0.3671
    172  OD1       -0.4460   -0.4520   21.7230 O.co2 165  ASP165     -0.2456
    173  OD2        1.4170   -0.4710   22.9090 O.co2 165  ASP165     -0.2456
    174  N         -3.1860    2.4460   19.6480 N.3   168  SER168     -0.1217
    175  CA        -3.1010    3.8990   19.5590 C.3   168  SER168      0.1889
    176  C         -3.3940    4.4300   18.1350 C.2   168  SER168      0.2288
    177  O         -2.9600    5.5220   17.7390 O.2   168  SER168     -0.2866
    178  CB        -1.7330    4.3700   20.0760 C.3   168  SER168      0.2089
    179  OG        -1.5360    3.9700   21.4330 O.3   168  SER168     -0.2183
@<TRIPOS>BOND
     1    59    60    1
     2    62    61    2
     3    61    60    1
     4    82    81    1
     5    60    63    1
     6   155   156    1
     7    81    80    1
     8    63    64    1
     9    80    79    1
    10    64    65    1
    11   177   176    2
    12   158   157    2
    13   156   157    1
    14   156   159    1
    15   176   175    1
    16   150   149    2
    17   157   166   am
    18   125   126    1
    19    67    65   am
    20    65    66    2
    21    79    78    1
    22    78    75    1
    23    95    96    1
    24    95    92    1
    25   159   160    1
    26    97    96   ar
    27    97    99   ar
    28   168   169    2
    29   168   167    1
    30   149   148    1
    31   127   126    1
    32   127   128    2
    33   161   160   ar
    34   161   163   ar
    35    96    98   ar
    36    99   101   ar
    37   166   167    1
    38   175   174    1
    39   175   178    1
    40   160   162   ar
    41   126   129    1
    42   133   134    1
    43   136   135    2
    44   163   165   ar
    45    98   100   ar
    46   101   100   ar
    47    74    75    1
    48    74    70   am
    49   167   170    1
    50    75    76    1
    51   178   179    1
    52    92    93    1
    53    92    91    1
    54   151   148    1
    55   151   152    1
    56   135   134    1
    57    94    93    2
    58   134   137    1
    59    77    76    2
    60   148   147    1
    61    76    83   am
    62   162   164   ar
    63   115   114    1
    64   129   130    1
    65    93   102   am
    66   165   164   ar
    67    91    85   am
    68    69    70    1
    69    69    72    1
    70    69    68    1
    71   170   171    1
    72    86    85    2
    73    70    71    2
    74   154   152   am
    75   147   145   am
    76    72    73    1
    77   119   120    2
    78   119   118    1
    79   152   153    2
    80    83    84    1
    81    85    84    1
    82   118   121    1
    83   118   117    1
    84   172   171   ar
    85   137   138    1
    86   171   173   ar
    87   130   132   ar
    88   130   131   ar
    89    84    87    1
    90   102   103    1
    91   114   116    1
    92   114   113    1
    93   143   144    1
    94   121   122    1
    95   145   146    2
    96   145   144    1
    97   138   139   ar
    98   138   140   ar
    99   110   113    1
   100   110   111    1
   101   110   109    1
   102   139   141   ar
   103   103   104    1
   104   103   106    1
   105   140   142   ar
   106   108   106    1
   107    87    88    1
   108   111   112    2
   109    58    57    1
   110    57    56    1
   111   122   123   ar
   112   122   124   ar
   113   141   142   ar
   114   104   105    2
   115    90    88   ar
   116   106   107    1
   117    49    48    1
   118    88    89   ar
   119    45    44    2
   120    42    43    1
   121    56    55    1
   122    55    54    1
   123    46    43    1
   124    46    47    1
   125    48    47    1
   126    44    43    1
   127    54    51    1
   128    32    30   am
   129    50    51    1
   130    53    52    2
   131    51    52    1
   132     9     7   ar
   133     9    11   ar
   134    30    29    1
   135    30    31    2
   136     7     6   ar
   137    11    10   ar
   138    29    26    1
   139     6     5    1
   140     6     8   ar
   141    28    27    2
   142    10     8   ar
   143    17    16    1
   144    17    18    1
   145     5     2    1
   146    26    27    1
   147    26    25    1
   148    41    40    1
   149    37    38    1
   150    37    34    1
   151    39    40    1
   152    39    38    1
   153    25    22   am
   154    16    14   am
   155    15    14    2
   156    20    18   am
   157    20    21    1
   158    14    13    1
   159    12    13    1
   160    12     3   am
   161    18    19    2
   162     2     3    1
   163     2     1    1
   164    22    21    1
   165    22    23    2
   166    34    35    1
   167    34    33    1
   168     3     4    2
   169    21    24    1
   170    35    36    2
