@<TRIPOS>MOLECULE
tmp/3akmB00.pdb
 244 230 0 0 0
SMALL
GASTEIGER

@<TRIPOS>ATOM
      1  N          0.4170  -34.1830   20.2260 N.3    14  TYR14      -0.1241
      2  CA         1.0040  -33.0940   20.9950 C.3    14  TYR14       0.1605
      3  C          2.0370  -32.3600   20.1480 C.2    14  TYR14       0.2264
      4  O          2.1180  -31.1400   20.2240 O.2    14  TYR14      -0.2867
      5  CB         1.5920  -33.5940   22.3050 C.3    14  TYR14       0.0534
      6  CG         2.0000  -32.5160   23.2660 C.ar   14  TYR14      -0.0201
      7  CD1        1.1340  -31.4990   23.6190 C.ar   14  TYR14      -0.0009
      8  CD2        3.2850  -32.5050   23.8150 C.ar   14  TYR14      -0.0009
      9  CE1        1.5290  -30.4960   24.4920 C.ar   14  TYR14       0.0417
     10  CE2        3.6720  -31.5360   24.6870 C.ar   14  TYR14       0.0417
     11  CZ         2.8010  -30.5340   25.0210 C.ar   14  TYR14       0.1957
     12  OH         3.1990  -29.5660   25.8950 O.3    14  TYR14      -0.2866
     13  N          0.4000  -29.9020   17.9630 N.3    17  PHE17      -0.1227
     14  CA        -0.1480  -28.8320   18.7580 C.3    17  PHE17       0.1736
     15  C          0.9370  -27.8290   19.1190 C.2    17  PHE17       0.2595
     16  O          0.7530  -26.6190   18.9890 O.2    17  PHE17      -0.2718
     17  CB        -0.7270  -29.4080   20.0310 C.3    17  PHE17       0.0547
     18  CG        -1.3150  -28.3760   20.9140 C.ar   17  PHE17      -0.0202
     19  CD1       -0.5500  -27.7840   21.9000 C.ar   17  PHE17      -0.0042
     20  CD2       -2.6250  -27.9600   20.7520 C.ar   17  PHE17      -0.0042
     21  CE1       -1.0860  -26.8160   22.7060 C.ar   17  PHE17      -0.0003
     22  CE2       -3.1460  -27.0060   21.5750 C.ar   17  PHE17      -0.0003
     23  CZ        -2.3650  -26.4420   22.5600 C.ar   17  PHE17      -0.0000
     24  N          2.0550  -28.3530   19.6120 N.am   18  MET18      -0.1979
     25  CA         3.1830  -27.5240   19.9400 C.3    18  MET18       0.1605
     26  C          3.6200  -26.6560   18.7690 C.2    18  MET18       0.2287
     27  O          3.8120  -25.4470   18.9410 O.2    18  MET18      -0.2864
     28  CB         4.3460  -28.3790   20.4550 C.3    18  MET18       0.0413
     29  CG         4.0880  -28.9040   21.8770 C.3    18  MET18       0.0598
     30  SD         5.6460  -29.5380   22.4690 S.3    18  MET18      -0.1393
     31  CE         5.7140  -31.1530   21.6450 C.3    18  MET18       0.0692
     32  N          1.3290  -23.8840   17.9960 N.3    21  MET21      -0.1245
     33  CA         1.6800  -22.8610   18.9690 C.3    21  MET21       0.1570
     34  C          3.0470  -22.2050   18.7270 C.2    21  MET21       0.2261
     35  O          3.4290  -21.3280   19.4590 O.2    21  MET21      -0.2867
     36  CB         1.6470  -23.4500   20.3820 C.3    21  MET21       0.0387
     37  CG         0.2490  -23.7250   20.8970 C.3    21  MET21       0.0595
     38  SD        -0.5780  -22.3040   21.5670 S.3    21  MET21      -0.1393
     39  CE         0.0810  -22.1720   23.2470 C.3    21  MET21       0.0692
     40  N          6.2260  -23.5180   18.9040 N.3    23  VAL23      -0.1245
     41  CA         7.4770  -23.9990   19.4650 C.3    23  VAL23       0.1561
     42  C          8.3050  -24.6760   18.3440 C.2    23  VAL23       0.2260
     43  O          7.7700  -25.2700   17.4010 O.2    23  VAL23      -0.2867
     44  CB         7.3060  -24.8510   20.7660 C.3    23  VAL23       0.0252
     45  CG1        5.8560  -25.2390   21.0410 C.3    23  VAL23       0.0019
     46  CG2        8.2310  -26.0210   20.7600 C.3    23  VAL23       0.0019
     47  N         12.8130  -27.6910   20.6420 N.3    27  LYS27      -0.1245
     48  CA        12.0250  -27.6500   21.8610 C.3    27  LYS27       0.1561
     49  C         10.8600  -28.6970   21.8030 C.2    27  LYS27       0.2260
     50  O         10.5330  -29.2780   22.8260 O.2    27  LYS27      -0.2867
     51  CB        11.4930  -26.2260   22.1140 C.3    27  LYS27       0.0271
     52  CG        12.5310  -25.2170   22.6920 C.3    27  LYS27       0.0035
     53  CD        12.7800  -25.5400   24.1460 C.3    27  LYS27       0.0206
     54  CE        13.7770  -24.6500   24.8290 C.3    27  LYS27       0.1093
     55  NZ        14.1750  -25.2570   26.2060 N.3    27  LYS27      -0.1314
     56  N         10.1830  -31.3770   24.5080 N.3    31  ALA31      -0.1245
     57  CA         8.8500  -31.4630   25.1150 C.3    31  ALA31       0.1562
     58  C          8.3420  -32.9020   25.0950 C.2    31  ALA31       0.2260
     59  O          7.7200  -33.3420   26.0260 O.2    31  ALA31      -0.2867
     60  CB         7.8820  -30.5070   24.3860 C.3    31  ALA31       0.0290
     61  N          9.2470  -34.2880   28.6070 N.3    34  ASP34      -0.1239
     62  CA         9.2760  -33.2410   29.6290 C.3    34  ASP34       0.1674
     63  C          9.0000  -33.7550   31.0060 C.2    34  ASP34       0.2266
     64  O          9.2390  -33.0550   31.9670 O.2    34  ASP34      -0.2867
     65  CB         8.3540  -32.0370   29.2560 C.3    34  ASP34       0.1410
     66  CG         6.8500  -32.3620   29.2750 C.2    34  ASP34       0.3668
     67  OD1        6.4470  -33.5290   29.5120 O.co2  34  ASP34      -0.2456
     68  OD2        6.0650  -31.4230   29.0620 O.co2  34  ASP34      -0.2456
     69  N         -1.7620  -25.5290   41.6420 N.3    49  VAL49      -0.1245
     70  CA        -1.1680  -26.5130   40.7540 C.3    49  VAL49       0.1561
     71  C          0.3580  -26.3190   40.6320 C.2    49  VAL49       0.2260
     72  O          0.8450  -25.3340   40.0310 O.2    49  VAL49      -0.2867
     73  CB        -1.8410  -26.5200   39.3450 C.3    49  VAL49       0.0252
     74  CG1       -1.1350  -27.5450   38.3560 C.3    49  VAL49       0.0019
     75  CG2       -3.3270  -26.8180   39.4730 C.3    49  VAL49       0.0019
     76  N          3.3920  -27.2960   38.8080 N.3    51  GLU51      -0.1245
     77  CA         3.8110  -27.8750   37.5330 C.3    51  GLU51       0.1567
     78  C          5.3320  -28.0950   37.5750 C.2    51  GLU51       0.2260
     79  O          6.1000  -27.1940   37.8740 O.2    51  GLU51      -0.2867
     80  CB         3.4630  -26.9920   36.3190 C.3    51  GLU51       0.0388
     81  CG         1.9410  -26.5900   36.2480 C.3    51  GLU51       0.1160
     82  CD         1.5660  -25.7140   35.0450 C.2    51  GLU51       0.3649
     83  OE1        2.4830  -25.3140   34.2830 O.co2  51  GLU51      -0.2457
     84  OE2        0.3540  -25.4440   34.8650 O.co2  51  GLU51      -0.2457
     85  N         11.5900  -28.6910   31.7490 N.3    55  PHE55      -0.1241
     86  CA        11.7290  -27.2640   31.4300 C.3    55  PHE55       0.1605
     87  C         11.7800  -26.3640   32.6680 C.2    55  PHE55       0.2264
     88  O         12.6360  -25.4830   32.7450 O.2    55  PHE55      -0.2867
     89  CB        10.6030  -26.7990   30.5020 C.3    55  PHE55       0.0534
     90  CG        10.6130  -27.4500   29.1580 C.ar   55  PHE55      -0.0203
     91  CD1        9.5870  -28.2950   28.7840 C.ar   55  PHE55      -0.0042
     92  CD2       11.6400  -27.2010   28.2670 C.ar   55  PHE55      -0.0042
     93  CE1        9.5760  -28.8750   27.5450 C.ar   55  PHE55      -0.0003
     94  CE2       11.6500  -27.7740   27.0320 C.ar   55  PHE55      -0.0003
     95  CZ        10.6190  -28.6270   26.6610 C.ar   55  PHE55      -0.0000
     96  N          1.1250  -22.6330   40.1640 N.3    60  VAL60      -0.1245
     97  CA         0.0590  -21.7920   39.6430 C.3    60  VAL60       0.1561
     98  C         -1.0470  -21.8040   40.6610 C.2    60  VAL60       0.2260
     99  O         -1.4190  -22.8550   41.1480 O.2    60  VAL60      -0.2867
    100  CB        -0.4570  -22.3360   38.2960 C.3    60  VAL60       0.0252
    101  CG1       -1.4640  -21.3830   37.7070 C.3    60  VAL60       0.0019
    102  CG2        0.7140  -22.5320   37.3310 C.3    60  VAL60       0.0019
    103  N         -5.0280  -20.4170   41.2790 N.3    62  PHE62      -0.1241
    104  CA        -6.1710  -19.8120   40.6120 C.3    62  PHE62       0.1605
    105  C         -7.4360  -20.0390   41.3430 C.2    62  PHE62       0.2264
    106  O         -7.5480  -20.9730   42.1040 O.2    62  PHE62      -0.2867
    107  CB        -6.2900  -20.2450   39.1490 C.3    62  PHE62       0.0534
    108  CG        -6.5110  -21.7120   38.9200 C.ar   62  PHE62      -0.0203
    109  CD1       -7.7840  -22.2640   38.9730 C.ar   62  PHE62      -0.0042
    110  CD2       -5.4690  -22.5200   38.5780 C.ar   62  PHE62      -0.0042
    111  CE1       -8.0050  -23.5990   38.7380 C.ar   62  PHE62      -0.0003
    112  CE2       -5.6910  -23.8520   38.3070 C.ar   62  PHE62      -0.0003
    113  CZ        -6.9670  -24.3880   38.3940 C.ar   62  PHE62      -0.0000
    114  N         -6.7910  -14.9230   35.1620 N.3    68  PHE68      -0.1241
    115  CA        -5.3990  -14.7970   35.5930 C.3    68  PHE68       0.1605
    116  C         -4.4800  -14.9380   34.3890 C.2    68  PHE68       0.2264
    117  O         -4.9240  -15.3730   33.3240 O.2    68  PHE68      -0.2867
    118  CB        -5.0630  -15.8030   36.6750 C.3    68  PHE68       0.0534
    119  CG        -5.1310  -17.2400   36.2300 C.ar   68  PHE68      -0.0203
    120  CD1       -6.3420  -17.8760   36.0890 C.ar   68  PHE68      -0.0042
    121  CD2       -3.9860  -17.9760   36.0070 C.ar   68  PHE68      -0.0042
    122  CE1       -6.4170  -19.1870   35.6660 C.ar   68  PHE68      -0.0003
    123  CE2       -4.0830  -19.3060   35.5860 C.ar   68  PHE68      -0.0003
    124  CZ        -5.2960  -19.8850   35.4200 C.ar   68  PHE68      -0.0000
    125  N         -0.7970  -16.3690   32.7990 N.3    70  TYR70      -0.1241
    126  CA         0.0350  -17.5180   32.9660 C.3    70  TYR70       0.1605
    127  C          1.0160  -17.5100   31.8340 C.2    70  TYR70       0.2264
    128  O          0.6740  -17.2970   30.6570 O.2    70  TYR70      -0.2867
    129  CB        -0.8540  -18.7110   33.0060 C.3    70  TYR70       0.0534
    130  CG        -0.1890  -20.0270   32.8660 C.ar   70  TYR70      -0.0201
    131  CD1        0.2840  -20.7100   33.9770 C.ar   70  TYR70      -0.0009
    132  CD2       -0.0350  -20.6060   31.6310 C.ar   70  TYR70      -0.0009
    133  CE1        0.9050  -21.9410   33.8320 C.ar   70  TYR70       0.0417
    134  CE2        0.5740  -21.8210   31.4910 C.ar   70  TYR70       0.0417
    135  CZ         1.0260  -22.4770   32.5890 C.ar   70  TYR70       0.1957
    136  OH         1.6010  -23.6920   32.4770 O.3    70  TYR70      -0.2866
    137  N          3.7390  -19.3910   29.4970 N.3    72  LEU72      -0.1231
    138  CA         4.1200  -20.6390   28.9760 C.3    72  LEU72       0.1693
    139  C          5.6430  -20.7220   29.0720 C.2    72  LEU72       0.2592
    140  O          6.3280  -19.7190   29.2430 O.2    72  LEU72      -0.2718
    141  CB         3.6500  -20.7680   27.5320 C.3    72  LEU72       0.0284
    142  CG         2.1230  -20.8420   27.4780 C.3    72  LEU72       0.0019
    143  CD1        1.6370  -20.4400   26.1780 C.3    72  LEU72       0.0001
    144  CD2        1.6700  -22.2020   27.8600 C.3    72  LEU72       0.0001
    145  N          6.1510  -21.9340   28.9580 N.am   73  ALA73      -0.1966
    146  CA         7.5910  -22.1630   29.0500 C.3    73  ALA73       0.1728
    147  C          8.4380  -21.3620   28.0480 C.2    73  ALA73       0.2616
    148  O          9.6560  -21.1990   28.2730 O.2    73  ALA73      -0.2715
    149  CB         7.8840  -23.6460   28.9500 C.3    73  ALA73       0.0334
    150  N          7.8570  -20.8790   26.9450 N.am   74  ASP74      -0.1971
    151  CA         8.6140  -19.9850   26.0340 C.3    74  ASP74       0.1709
    152  C          8.3720  -18.5130   26.2680 C.2    74  ASP74       0.2293
    153  O          8.7490  -17.6780   25.4510 O.2    74  ASP74      -0.2864
    154  CB         8.3530  -20.2650   24.5620 C.3    74  ASP74       0.1436
    155  CG         6.9090  -20.0160   24.1730 C.2    74  ASP74       0.3671
    156  OD1        6.1020  -19.6650   25.0780 O.co2  74  ASP74      -0.2456
    157  OD2        6.5820  -20.2280   22.9800 O.co2  74  ASP74      -0.2456
    158  N          5.4840  -17.0830   26.3550 N.3    76  THR76      -0.1218
    159  CA         4.1880  -16.6240   25.7900 C.3    76  THR76       0.1862
    160  C          3.1560  -16.5070   26.8840 C.2    76  THR76       0.2287
    161  O          3.0030  -17.3800   27.7350 O.2    76  THR76      -0.2866
    162  CB         3.7160  -17.5050   24.6640 C.3    76  THR76       0.1770
    163  OG1        4.6390  -17.3760   23.5960 O.3    76  THR76      -0.2211
    164  CG2        2.3100  -17.0880   24.1360 C.3    76  THR76       0.0375
    165  N         -0.5300  -16.2500   28.4890 N.3    78  LEU78      -0.1245
    166  CA        -1.9040  -16.6890   28.3360 C.3    78  LEU78       0.1561
    167  C         -2.7100  -15.9290   29.3600 C.2    78  LEU78       0.2260
    168  O         -2.2270  -15.7130   30.4520 O.2    78  LEU78      -0.2867
    169  CB        -1.9990  -18.2140   28.5890 C.3    78  LEU78       0.0270
    170  CG        -1.5030  -19.1570   27.5290 C.3    78  LEU78       0.0019
    171  CD1       -2.1440  -20.5870   27.7940 C.3    78  LEU78       0.0001
    172  CD2       -1.8310  -18.6380   26.1680 C.3    78  LEU78       0.0001
    173  N        -10.1330  -20.9160   34.4420 N.3    82  TRP82      -0.1241
    174  CA       -10.6110  -22.2620   34.5940 C.3    82  TRP82       0.1605
    175  C        -12.0460  -22.1450   35.1250 C.2    82  TRP82       0.2264
    176  O        -12.3340  -21.2990   35.9430 O.2    82  TRP82      -0.2867
    177  CB        -9.7670  -23.0140   35.6110 C.3    82  TRP82       0.0550
    178  CG        -8.4670  -23.5500   35.0550 C.ar   82  TRP82       0.0003
    179  CD1       -7.2360  -23.1280   35.3730 C.ar   82  TRP82       0.0946
    180  CD2       -8.2910  -24.6450   34.1380 C.ar   82  TRP82       0.0152
    181  NE1       -6.2900  -23.8360   34.6890 N.ar   82  TRP82      -0.2442
    182  CE2       -6.8990  -24.8150   33.9660 C.ar   82  TRP82       0.0810
    183  CE3       -9.1590  -25.5130   33.4730 C.ar   82  TRP82       0.0012
    184  CZ2       -6.3680  -25.7460   33.1030 C.ar   82  TRP82       0.0191
    185  CZ3       -8.6290  -26.4600   32.6590 C.ar   82  TRP82       0.0001
    186  CH2       -7.2380  -26.5650   32.4590 C.ar   82  TRP82       0.0015
    187  N         -8.5040  -19.6990   27.4980 N.3    93  PHE93      -0.1241
    188  CA        -7.3570  -18.8410   27.6070 C.3    93  PHE93       0.1605
    189  C         -7.1980  -18.1710   26.2780 C.2    93  PHE93       0.2264
    190  O         -7.6530  -18.7370   25.2370 O.2    93  PHE93      -0.2867
    191  CB        -6.1250  -19.6580   27.9900 C.3    93  PHE93       0.0534
    192  CG        -6.1850  -20.1730   29.3600 C.ar   93  PHE93      -0.0203
    193  CD1       -5.9340  -19.3670   30.4180 C.ar   93  PHE93      -0.0042
    194  CD2       -6.6500  -21.4360   29.6030 C.ar   93  PHE93      -0.0042
    195  CE1       -6.0440  -19.8350   31.7040 C.ar   93  PHE93      -0.0003
    196  CE2       -6.8000  -21.8980   30.8700 C.ar   93  PHE93      -0.0003
    197  CZ        -6.4870  -21.1030   31.9310 C.ar   93  PHE93      -0.0000
    198  N         -6.9570  -20.4830   23.4050 N.3   102  LEU102     -0.1245
    199  CA        -6.4650  -21.8090   23.7170 C.3   102  LEU102      0.1561
    200  C         -7.4710  -22.3660   24.6870 C.2   102  LEU102      0.2260
    201  O         -7.5600  -21.8840   25.8180 O.2   102  LEU102     -0.2867
    202  CB        -5.0670  -21.7210   24.3470 C.3   102  LEU102      0.0270
    203  CG        -4.3340  -23.0520   24.4890 C.3   102  LEU102      0.0019
    204  CD1       -2.9260  -22.8070   24.8890 C.3   102  LEU102      0.0001
    205  CD2       -5.0160  -23.9200   25.4960 C.3   102  LEU102      0.0001
    206  N         -9.0920  -25.6280   26.7450 N.3   104  THR104     -0.1218
    207  CA        -8.5920  -26.8360   27.3630 C.3   104  THR104      0.1862
    208  C         -9.6370  -27.4570   28.3030 C.2   104  THR104      0.2287
    209  O        -10.5540  -26.7740   28.8080 O.2   104  THR104     -0.2866
    210  CB        -7.2530  -26.5620   28.1090 C.3   104  THR104      0.1770
    211  OG1       -6.6410  -27.7840   28.5360 O.3   104  THR104     -0.2211
    212  CG2       -7.5020  -25.6180   29.3070 C.3   104  THR104      0.0375
    213  N         -9.6980  -30.4560   31.4890 N.3   106  ARG106     -0.1245
    214  CA        -9.1510  -31.4780   32.3630 C.3   106  ARG106      0.1563
    215  C        -10.3140  -32.3570   32.8890 C.2   106  ARG106      0.2260
    216  O        -11.2980  -31.8360   33.4410 O.2   106  ARG106     -0.2867
    217  CB        -8.4570  -30.8110   33.5570 C.3   106  ARG106      0.0307
    218  CG        -7.1370  -30.2390   33.2120 C.3   106  ARG106      0.0489
    219  CD        -6.4330  -29.6930   34.4360 C.3   106  ARG106      0.2205
    220  NE        -5.0860  -29.2360   34.1200 N.pl3 106  ARG106     -0.0865
    221  CZ        -4.4460  -28.2500   34.7370 C.cat 106  ARG106      0.5346
    222  NH1       -5.0420  -27.5500   35.7040 N.pl3 106  ARG106      0.1354
    223  NH2       -3.2120  -27.9450   34.3660 N.pl3 106  ARG106      0.1354
    224  N         -6.1270  -34.4450   29.7620 N.3   115  GLN115     -0.1245
    225  CA        -6.2280  -33.0580   29.4500 C.3   115  GLN115      0.1566
    226  C         -6.1950  -32.8850   27.9570 C.2   115  GLN115      0.2260
    227  O         -5.3250  -33.4420   27.2590 O.2   115  GLN115     -0.2867
    228  CB        -5.1780  -32.2400   30.1480 C.3   115  GLN115      0.0367
    229  CG        -5.3070  -30.7150   29.8660 C.3   115  GLN115      0.0905
    230  CD        -4.4320  -29.8750   30.7230 C.2   115  GLN115      0.2608
    231  OE1       -3.8260  -30.3870   31.7030 O.2   115  GLN115     -0.2717
    232  NE2       -4.4210  -28.5460   30.4570 N.am  115  GLN115     -0.0878
    233  N         -6.3670  -30.2730   24.6230 N.3   117  TYR117     -0.1241
    234  CA        -5.9280  -28.9450   24.2080 C.3   117  TYR117      0.1605
    235  C         -6.4840  -28.6900   22.7920 C.2   117  TYR117      0.2264
    236  O         -6.4340  -29.5730   21.9170 O.2   117  TYR117     -0.2867
    237  CB        -4.3950  -28.8600   24.1590 C.3   117  TYR117      0.0534
    238  CG        -3.6140  -29.2930   25.3630 C.ar  117  TYR117     -0.0201
    239  CD1       -2.8900  -28.3820   26.1170 C.ar  117  TYR117     -0.0009
    240  CD2       -3.5690  -30.6260   25.7490 C.ar  117  TYR117     -0.0009
    241  CE1       -2.1530  -28.7710   27.2050 C.ar  117  TYR117      0.0417
    242  CE2       -2.8340  -31.0290   26.8570 C.ar  117  TYR117      0.0417
    243  CZ        -2.1170  -30.0990   27.5630 C.ar  117  TYR117      0.1957
    244  OH        -1.4010  -30.5090   28.6450 O.3   117  TYR117     -0.2866
@<TRIPOS>BOND
     1    43    42    2
     2    13    14    1
     3    32    33    1
     4    42    41    1
     5    34    33    1
     6    34    35    2
     7    14    15    1
     8    14    17    1
     9    26    27    2
    10    26    25    1
    11    40    41    1
    12    33    36    1
    13    16    15    2
    14    15    24   am
    15    41    44    1
    16    24    25    1
    17    25    28    1
    18    17    18    1
    19     3     4    2
    20     3     2    1
    21     1     2    1
    22    36    37    1
    23    28    29    1
    24    47    48    1
    25    20    18   ar
    26    20    22   ar
    27    46    44    1
    28    44    45    1
    29    37    38    1
    30    18    19   ar
    31     2     5    1
    32    38    39    1
    33    22    23   ar
    34    31    30    1
    35    49    48    1
    36    49    50    2
    37    48    51    1
    38    29    30    1
    39    19    21   ar
    40   236   235    2
    41    51    52    1
    42     5     6    1
    43    23    21   ar
    44    52    53    1
    45   235   234    1
    46   157   155   ar
    47     6     7   ar
    48     6     8   ar
    49   198   199    1
    50   163   162    1
    51     7     9   ar
    52   199   202    1
    53   199   200    1
    54     8    10   ar
    55   164   162    1
    56    53    54    1
    57   237   234    1
    58   237   238    1
    59   155   154    1
    60   155   156   ar
    61   234   233    1
    62   202   203    1
    63    60    57    1
    64   203   204    1
    65   203   205    1
    66     9    11   ar
    67    56    57    1
    68   154   151    1
    69   162   159    1
    70   200   201    2
    71    10    11   ar
    72    54    55    1
    73    11    12    1
    74    58    57    1
    75    58    59    2
    76   190   189    2
    77   238   240   ar
    78   238   239   ar
    79   153   152    2
    80   240   242   ar
    81   159   158    1
    82   159   160    1
    83   151   152    1
    84   151   150    1
    85   239   241   ar
    86   172   170    1
    87   143   142    1
    88   189   188    1
    89    95    94   ar
    90    95    93   ar
    91   206   207    1
    92   242   243   ar
    93   160   161    2
    94   150   147   am
    95    94    92   ar
    96   241   243   ar
    97   227   226    2
    98   207   210    1
    99   207   208    1
   100   142   141    1
   101   142   144    1
   102   187   188    1
   103   170   171    1
   104   170   169    1
   105   141   138    1
   106    93    91   ar
   107   243   244    1
   108   188   191    1
   109   226   225    1
   110   191   192    1
   111   147   148    2
   112   147   146    1
   113   210   211    1
   114   210   212    1
   115    92    90   ar
   116   208   209    2
   117   166   165    1
   118   166   169    1
   119   166   167    1
   120    61    62    1
   121    91    90   ar
   122   149   146    1
   123   145   146    1
   124   145   139   am
   125   138   139    1
   126   138   137    1
   127    68    66   ar
   128   139   140    2
   129    90    89    1
   130    65    66    1
   131    65    62    1
   132    66    67   ar
   133   192   194   ar
   134   192   193   ar
   135   167   168    2
   136   225   224    1
   137   225   228    1
   138   194   196   ar
   139    62    63    1
   140   229   228    1
   141   229   230    1
   142   193   195   ar
   143   232   230   am
   144    89    86    1
   145   128   127    2
   146   230   231    2
   147   196   197   ar
   148    63    64    2
   149    86    85    1
   150    86    87    1
   151   213   214    1
   152   134   132   ar
   153   134   135   ar
   154   132   130   ar
   155   195   197   ar
   156   127   126    1
   157   214   215    1
   158   214   217    1
   159   186   185   ar
   160   186   184   ar
   161   136   135    1
   162   135   133   ar
   163   185   183   ar
   164    87    88    2
   165   125   126    1
   166   130   129    1
   167   130   131   ar
   168   215   216    2
   169   126   129    1
   170   184   182   ar
   171   218   217    1
   172   218   219    1
   173   117   116    2
   174   183   180   ar
   175   133   131   ar
   176   182   180   ar
   177   182   181   ar
   178   220   219    1
   179   220   221    2
   180   180   178   ar
   181    83    82   ar
   182   223   221    1
   183   116   115    1
   184   173   174    1
   185   174   175    1
   186   174   177    1
   187   181   179   ar
   188   221   222    1
   189    84    82   ar
   190    82    81    1
   191   178   179   ar
   192   178   177    1
   193   175   176    2
   194   114   115    1
   195   124   123   ar
   196   124   122   ar
   197   123   121   ar
   198   115   118    1
   199   122   120   ar
   200   121   119   ar
   201   120   119   ar
   202   119   118    1
   203    81    80    1
   204    80    77    1
   205   102   100    1
   206    77    78    1
   207    77    76    1
   208    78    79    2
   209   101   100    1
   210   100    97    1
   211   112   113   ar
   212   112   110   ar
   213    74    73    1
   214   113   111   ar
   215   110   108   ar
   216   111   109   ar
   217   108   109   ar
   218   108   107    1
   219   107   104    1
   220    73    75    1
   221    73    70    1
   222    97    96    1
   223    97    98    1
   224    72    71    2
   225   104   103    1
   226   104   105    1
   227    71    70    1
   228    98    99    2
   229    70    69    1
   230   105   106    2
