@<TRIPOS>MOLECULE
tmp/3akoE00.pdb
 126 122 0 0 0
SMALL
GASTEIGER

@<TRIPOS>ATOM
      1  N         55.1750  -27.1950   -6.3350 N.3    17  ASP17      -0.1225
      2  CA        55.7640  -28.5140   -6.3820 C.3    17  ASP17       0.1805
      3  C         54.7070  -29.4840   -5.8880 C.2    17  ASP17       0.2598
      4  O         54.1110  -29.2950   -4.8320 O.2    17  ASP17      -0.2718
      5  CB        57.0780  -28.5990   -5.5730 C.3    17  ASP17       0.1424
      6  CG        58.2180  -27.7660   -6.2020 C.2    17  ASP17       0.3668
      7  OD1       58.9680  -27.1160   -5.4400 O.co2  17  ASP17      -0.2456
      8  OD2       58.3730  -27.7570   -7.4440 O.co2  17  ASP17      -0.2456
      9  N         54.4480  -30.5090   -6.6920 N.am   18  GLY18      -0.1942
     10  CA        53.3390  -31.3900   -6.4100 C.3    18  GLY18       0.2014
     11  C         53.7740  -32.8260   -6.5240 C.2    18  GLY18       0.2638
     12  O         54.7540  -33.1310   -7.2070 O.2    18  GLY18      -0.2714
     13  N         53.0620  -33.6860   -5.7980 N.am   19  ASP19      -0.1971
     14  CA        53.2240  -35.1010   -5.9090 C.3    19  ASP19       0.1709
     15  C         51.8460  -35.7500   -5.8060 C.2    19  ASP19       0.2293
     16  O         51.1720  -35.6370   -4.7990 O.2    19  ASP19      -0.2864
     17  CB        54.1040  -35.6220   -4.7860 C.3    19  ASP19       0.1436
     18  CG        54.2550  -37.1450   -4.8330 C.2    19  ASP19       0.3671
     19  OD1       53.2810  -37.8620   -5.1570 O.co2  19  ASP19      -0.2456
     20  OD2       55.3690  -37.6190   -4.5490 O.co2  19  ASP19      -0.2456
     21  N         55.7810  -36.9440   -9.4350 N.3    24  LYS24      -0.1231
     22  CA        56.3190  -35.6850   -8.9440 C.3    24  LYS24       0.1693
     23  C         56.2360  -34.6730  -10.0910 C.2    24  LYS24       0.2592
     24  O         56.5420  -35.0200  -11.2080 O.2    24  LYS24      -0.2718
     25  CB        57.7820  -35.9110   -8.5440 C.3    24  LYS24       0.0285
     26  CG        58.3070  -34.8340   -7.6600 C.3    24  LYS24       0.0035
     27  CD        59.6590  -35.1560   -7.0120 C.3    24  LYS24       0.0206
     28  CE        60.0320  -34.0370   -6.0210 C.3    24  LYS24       0.1093
     29  NZ        59.4380  -34.2900   -4.6720 N.3    24  LYS24      -0.1314
     30  N         55.7940  -33.4450   -9.8370 N.am   25  PHE25      -0.1962
     31  CA        55.7380  -32.4510  -10.9160 C.3    25  PHE25       0.1771
     32  C         55.9160  -31.0450  -10.3690 C.2    25  PHE25       0.2620
     33  O         55.6890  -30.7910   -9.1740 O.2    25  PHE25      -0.2715
     34  CB        54.4180  -32.5550  -11.6990 C.3    25  PHE25       0.0574
     35  CG        53.2120  -32.2560  -10.8550 C.ar   25  PHE25      -0.0200
     36  CD1       52.7270  -30.9560  -10.7460 C.ar   25  PHE25      -0.0042
     37  CD2       52.5760  -33.2700  -10.1510 C.ar   25  PHE25      -0.0042
     38  CE1       51.6140  -30.6690   -9.9490 C.ar   25  PHE25      -0.0003
     39  CE2       51.4650  -33.0010   -9.3510 C.ar   25  PHE25      -0.0003
     40  CZ        50.9850  -31.6990   -9.2350 C.ar   25  PHE25      -0.0000
     41  N         56.3420  -30.1550  -11.2570 N.am   26  SER26      -0.1950
     42  CA        56.4680  -28.7570  -10.9640 C.3    26  SER26       0.1924
     43  C         55.7850  -27.8380  -11.9680 C.2    26  SER26       0.2314
     44  O         55.8310  -28.0400  -13.1860 O.2    26  SER26      -0.2863
     45  CB        57.9420  -28.3430  -10.8230 C.3    26  SER26       0.2116
     46  OG        58.4600  -28.8880   -9.6380 O.3    26  SER26      -0.2180
     47  N         45.6880  -22.9060    3.0480 N.3    90  GLU90      -0.1231
     48  CA        45.7100  -24.3590    3.1050 C.3    90  GLU90       0.1699
     49  C         44.3950  -24.9780    2.7200 C.2    90  GLU90       0.2592
     50  O         43.3410  -24.5210    3.1670 O.2    90  GLU90      -0.2718
     51  CB        46.0620  -24.8310    4.5250 C.3    90  GLU90       0.0402
     52  CG        47.4980  -24.6110    4.9140 C.3    90  GLU90       0.1161
     53  CD        47.7540  -25.0290    6.3810 C.2    90  GLU90       0.3649
     54  OE1       48.8140  -25.6250    6.6460 O.co2  90  GLU90      -0.2457
     55  OE2       46.8930  -24.7540    7.2540 O.co2  90  GLU90      -0.2457
     56  N         44.4510  -26.0470    1.9210 N.am   91  ARG91      -0.1966
     57  CA        43.2490  -26.7640    1.5370 C.3    91  ARG91       0.1729
     58  C         43.3990  -28.2560    1.6090 C.2    91  ARG91       0.2616
     59  O         44.5060  -28.8050    1.4470 O.2    91  ARG91      -0.2715
     60  CB        42.8610  -26.4360    0.0890 C.3    91  ARG91       0.0348
     61  CG        42.5750  -24.9530   -0.1960 C.3    91  ARG91       0.0492
     62  CD        41.5210  -24.8560   -1.3170 C.3    91  ARG91       0.2205
     63  NE        41.1480  -23.4750   -1.6730 N.pl3  91  ARG91      -0.0865
     64  CZ        41.6320  -22.7880   -2.7390 C.cat  91  ARG91       0.5346
     65  NH1       42.5350  -23.3230   -3.5710 N.pl3  91  ARG91       0.1354
     66  NH2       41.2070  -21.5420   -2.9790 N.pl3  91  ARG91       0.1354
     67  N         42.2500  -28.8990    1.8030 N.am   92  THR92      -0.1951
     68  CA        42.0410  -30.2420    1.3270 C.3    92  THR92       0.1897
     69  C         40.9320  -30.2490    0.2590 C.2    92  THR92       0.2313
     70  O         39.8650  -29.6600    0.4340 O.2    92  THR92      -0.2863
     71  CB        41.6880  -31.1990    2.4880 C.3    92  THR92       0.1794
     72  OG1       42.7550  -31.1660    3.4330 O.3    92  THR92      -0.2208
     73  CG2       41.5700  -32.5900    1.9980 C.3    92  THR92       0.0378
     74  N         46.0640  -32.2180   -0.8270 N.3   102  LYS102     -0.1231
     75  CA        46.2850  -31.3640    0.3380 C.3   102  LYS102      0.1693
     76  C         47.3510  -30.3930   -0.0890 C.2   102  LYS102      0.2593
     77  O         48.3190  -30.7850   -0.7240 O.2   102  LYS102     -0.2718
     78  CB        46.7700  -32.1610    1.5590 C.3   102  LYS102      0.0285
     79  CG        45.6720  -32.9510    2.2790 C.3   102  LYS102      0.0035
     80  CD        46.2890  -33.7240    3.4610 C.3   102  LYS102      0.0206
     81  CE        45.2490  -34.6570    4.1340 C.3   102  LYS102      0.1093
     82  NZ        45.0740  -35.8980    3.3030 N.3   102  LYS102     -0.1314
     83  N         47.1780  -29.1180    0.2550 N.am  103  THR103     -0.1939
     84  CA        48.0110  -28.0270   -0.3420 C.3   103  THR103      0.2028
     85  C         48.2980  -27.0270    0.7350 C.2   103  THR103      0.2642
     86  O         47.4370  -26.7520    1.5850 O.2   103  THR103     -0.2714
     87  CB        47.3200  -27.2690   -1.4990 C.3   103  THR103      0.1808
     88  OG1       46.1770  -26.5710   -0.9850 O.3   103  THR103     -0.2208
     89  CG2       46.8880  -28.2240   -2.6360 C.3   103  THR103      0.0379
     90  N         49.5090  -26.4910    0.6880 N.am  104  ARG104     -0.1977
     91  CA        49.9090  -25.4390    1.5820 C.3   104  ARG104      0.1597
     92  C         50.6210  -24.4020    0.7210 C.2   104  ARG104      0.2287
     93  O         51.6010  -24.7120    0.0150 O.2   104  ARG104     -0.2864
     94  CB        50.8230  -25.9810    2.6930 C.3   104  ARG104      0.0334
     95  CG        51.2600  -24.9130    3.6350 C.3   104  ARG104      0.0492
     96  CD        52.1400  -25.4100    4.7820 C.3   104  ARG104      0.2205
     97  NE        52.3950  -24.2990    5.7130 N.pl3 104  ARG104     -0.0865
     98  CZ        53.2020  -23.2600    5.4740 C.cat 104  ARG104      0.5346
     99  NH1       53.8620  -23.1500    4.3250 N.pl3 104  ARG104      0.1354
    100  NH2       53.3370  -22.3100    6.3880 N.pl3 104  ARG104      0.1354
    101  N         53.0860  -26.0810   -2.1200 N.3   119  GLU119     -0.1231
    102  CA        53.3440  -27.5150   -2.1810 C.3   119  GLU119      0.1699
    103  C         52.0150  -28.2370   -2.2210 C.2   119  GLU119      0.2592
    104  O         51.0850  -27.8340   -1.5430 O.2   119  GLU119     -0.2718
    105  CB        54.1700  -27.9560   -0.9630 C.3   119  GLU119      0.0402
    106  CG        55.5630  -27.3090   -0.9530 C.3   119  GLU119      0.1161
    107  CD        56.4660  -27.8130    0.1870 C.2   119  GLU119      0.3649
    108  OE1       55.9930  -28.5440    1.1000 O.co2 119  GLU119     -0.2457
    109  OE2       57.6550  -27.4770    0.1700 O.co2 119  GLU119     -0.2457
    110  N         51.9400  -29.2880   -3.0350 N.am  120  LEU120     -0.1966
    111  CA        50.7090  -30.0680   -3.2060 C.3   120  LEU120      0.1728
    112  C         51.0260  -31.5520   -3.0890 C.2   120  LEU120      0.2616
    113  O         51.9650  -32.0380   -3.7250 O.2   120  LEU120     -0.2715
    114  CB        50.0940  -29.8120   -4.6050 C.3   120  LEU120      0.0311
    115  CG        48.8190  -30.6030   -4.9750 C.3   120  LEU120      0.0022
    116  CD1       47.8470  -29.8650   -5.9170 C.3   120  LEU120      0.0001
    117  CD2       49.0820  -32.0140   -5.5040 C.3   120  LEU120      0.0001
    118  N         50.2040  -32.2800   -2.3400 N.am  121  LYS121     -0.1977
    119  CA        50.3240  -33.7430   -2.2600 C.3   121  LYS121      0.1596
    120  C         48.9790  -34.3840   -2.5540 C.2   121  LYS121      0.2287
    121  O         47.9820  -34.0400   -1.9160 O.2   121  LYS121     -0.2864
    122  CB        50.7820  -34.1600   -0.8580 C.3   121  LYS121      0.0298
    123  CG        50.7920  -35.6740   -0.6300 C.3   121  LYS121      0.0038
    124  CD        52.1310  -36.0970   -0.0110 C.3   121  LYS121      0.0206
    125  CE        52.3180  -37.6370   -0.0750 C.3   121  LYS121      0.1093
    126  NZ        53.7850  -37.9640   -0.0510 N.3   121  LYS121     -0.1314
@<TRIPOS>BOND
     1    44    43    2
     2    43    42    1
     3    34    31    1
     4    34    35    1
     5    41    42    1
     6    41    32   am
     7    24    23    2
     8    42    45    1
     9    31    32    1
    10    31    30    1
    11    35    36   ar
    12    35    37   ar
    13    45    46    1
    14    36    38   ar
    15    32    33    2
    16    37    39   ar
    17    23    30   am
    18    23    22    1
    19    38    40   ar
    20    21    22    1
    21    39    40   ar
    22    22    25    1
    23    25    26    1
    24    26    27    1
    25     8     6   ar
    26    12    11    2
    27    27    28    1
    28     9    10    1
    29     9     3   am
    30    11    10    1
    31    11    13   am
    32     2     1    1
    33     2     3    1
    34     2     5    1
    35     6     5    1
    36     6     7   ar
    37    28    29    1
    38   116   115    1
    39    14    15    1
    40    14    13    1
    41    14    17    1
    42     3     4    2
    43    15    16    2
    44   117   115    1
    45    19    18   ar
    46   115   114    1
    47    18    17    1
    48    18    20   ar
    49   114   111    1
    50   113   112    2
    51    65    64    1
    52   111   112    1
    53   111   110    1
    54   112   118   am
    55   110   103   am
    56    66    64    1
    57    64    63    2
    58    89    87    1
    59   120   119    1
    60   120   121    2
    61   118   119    1
    62   119   122    1
    63   103   102    1
    64   103   104    2
    65   102   101    1
    66   102   105    1
    67    63    62    1
    68    87    88    1
    69    87    84    1
    70    62    61    1
    71   105   106    1
    72   106   107    1
    73   122   123    1
    74    74    75    1
    75    77    76    2
    76   123   124    1
    77    84    83    1
    78    84    85    1
    79    61    60    1
    80    76    83   am
    81    76    75    1
    82   125   126    1
    83   125   124    1
    84    93    92    2
    85    60    57    1
    86   109   107   ar
    87   107   108   ar
    88    69    70    2
    89    69    68    1
    90    75    78    1
    91    90    85   am
    92    90    91    1
    93    92    91    1
    94    85    86    2
    95    68    67    1
    96    68    71    1
    97    59    58    2
    98    57    58    1
    99    57    56    1
   100    78    79    1
   101    91    94    1
   102    58    67   am
   103    56    49   am
   104    73    71    1
   105    79    80    1
   106    71    72    1
   107    94    95    1
   108    49    48    1
   109    49    50    2
   110    47    48    1
   111    48    51    1
   112    82    81    1
   113    80    81    1
   114    95    96    1
   115    99    98    1
   116    51    52    1
   117    96    97    1
   118    52    53    1
   119    98    97    2
   120    98   100    1
   121    53    54   ar
   122    53    55   ar
