@<TRIPOS>MOLECULE
tmp/3al0C00.pdb
 190 187 0 0 0
SMALL
GASTEIGER

@<TRIPOS>ATOM
      1  N         20.2880   -1.4780   22.0280 N.3   106  ARG106     -0.1231
      2  CA        21.3450   -0.5540   22.4270 C.3   106  ARG106      0.1694
      3  C         20.9350    0.4470   23.5180 C.2   106  ARG106      0.2592
      4  O         19.8180    0.9840   23.5220 O.2   106  ARG106     -0.2718
      5  CB        21.8980    0.1880   21.2040 C.3   106  ARG106      0.0321
      6  CG        20.8690    0.6170   20.1340 C.3   106  ARG106      0.0489
      7  CD        20.0430    1.7830   20.5980 C.3   106  ARG106      0.2205
      8  NE        19.6770    2.7490   19.5700 N.pl3 106  ARG106     -0.0865
      9  CZ        19.3480    4.0060   19.8620 C.cat 106  ARG106      0.5346
     10  NH1       19.3770    4.4050   21.1150 N.pl3 106  ARG106      0.1354
     11  NH2       19.0090    4.8750   18.9310 N.pl3 106  ARG106      0.1354
     12  N         21.8310    0.6790   24.4690 N.am  107  PHE107     -0.1962
     13  CA        21.6420    1.7840   25.3940 C.3   107  PHE107      0.1771
     14  C         22.7310    2.7510   24.9980 C.2   107  PHE107      0.2619
     15  O         23.9070    2.4540   25.1090 O.2   107  PHE107     -0.2715
     16  CB        21.7350    1.3510   26.8740 C.3   107  PHE107      0.0574
     17  CG        21.5720    2.4920   27.8520 C.ar  107  PHE107     -0.0200
     18  CD1       20.3440    3.1000   28.0350 C.ar  107  PHE107     -0.0042
     19  CD2       22.6540    2.9700   28.5770 C.ar  107  PHE107     -0.0042
     20  CE1       20.2000    4.1580   28.9170 C.ar  107  PHE107     -0.0003
     21  CE2       22.5090    4.0280   29.4670 C.ar  107  PHE107     -0.0003
     22  CZ        21.2860    4.6180   29.6350 C.ar  107  PHE107     -0.0000
     23  N         22.3300    3.8930   24.4750 N.am  108  ALA108     -0.1964
     24  CA        23.2640    4.7750   23.8150 C.3   108  ALA108      0.1713
     25  C         23.3540    6.1040   24.5290 C.2   108  ALA108      0.2458
     26  O         22.9740    7.1290   23.9630 O.2   108  ALA108     -0.2730
     27  CB        22.8360    4.9830   22.3750 C.3   108  ALA108      0.0333
     28  N         23.8790    6.1040   25.7610 N.am  109  PRO109     -0.2716
     29  CA        23.8920    7.3240   26.5720 C.3   109  PRO109      0.1536
     30  C         24.8980    8.2950   26.0200 C.2   109  PRO109      0.2599
     31  O         25.8340    7.8550   25.3730 O.2   109  PRO109     -0.2715
     32  CB        24.3730    6.8240   27.9310 C.3   109  PRO109      0.0310
     33  CG        25.2300    5.6630   27.6060 C.3   109  PRO109      0.0237
     34  CD        24.6060    5.0020   26.4080 C.3   109  PRO109      0.0939
     35  N         24.7070    9.5840   26.2530 N.am  110  SER110     -0.1950
     36  CA        25.7350   10.5580   25.9320 C.3   110  SER110      0.1924
     37  C         26.3740   11.0450   27.2330 C.2   110  SER110      0.2314
     38  O         25.6660   11.4970   28.1320 O.2   110  SER110     -0.2863
     39  CB        25.1550   11.7250   25.1320 C.3   110  SER110      0.2116
     40  OG        24.4770   12.6420   25.9630 O.3   110  SER110     -0.2180
     41  N         21.1230    9.0330   35.6710 N.3   116  HIS116     -0.1241
     42  CA        20.0180    9.1420   36.6170 C.3   116  HIS116      0.1621
     43  C         19.1160    7.9080   36.6280 C.2   116  HIS116      0.2264
     44  O         19.3290    6.9640   35.8740 O.2   116  HIS116     -0.2867
     45  CB        19.2010   10.3900   36.3110 C.3   116  HIS116      0.0745
     46  CG        18.7080   10.4580   34.9000 C.ar  116  HIS116      0.0817
     47  ND1       18.0990   11.5780   34.3740 N.ar  116  HIS116     -0.2268
     48  CD2       18.7290    9.5420   33.9040 C.ar  116  HIS116      0.1154
     49  CE1       17.7650   11.3490   33.1190 C.ar  116  HIS116      0.1986
     50  NE2       18.1370   10.1200   32.8100 N.ar  116  HIS116     -0.2212
     51  N         16.4460    7.7600   35.5210 N.3   118  GLY118     -0.1210
     52  CA        15.8090    7.7930   34.2200 C.3   118  GLY118      0.1956
     53  C         16.4000    6.7690   33.2770 C.2   118  GLY118      0.2612
     54  O         15.7660    5.7520   32.9770 O.2   118  GLY118     -0.2717
     55  N         17.6210    7.0390   32.8160 N.am  119  GLY119     -0.1956
     56  CA        18.3320    6.1560   31.9080 C.3   119  GLY119      0.1869
     57  C         18.4670    4.7520   32.4460 C.2   119  GLY119      0.2309
     58  O         18.8390    3.8220   31.7360 O.2   119  GLY119     -0.2863
     59  N         15.0430    2.9640   31.4030 N.3   122  THR122     -0.1218
     60  CA        15.0530    2.8680   29.9630 C.3   122  THR122      0.1862
     61  C         16.2710    2.0990   29.4760 C.2   122  THR122      0.2287
     62  O         16.4820    1.9750   28.2800 O.2   122  THR122     -0.2866
     63  CB        14.9780    4.2640   29.3110 C.3   122  THR122      0.1770
     64  OG1       16.2770    4.6610   28.8540 O.3   122  THR122     -0.2211
     65  CG2       14.4140    5.2830   30.3140 C.3   122  THR122      0.0375
     66  N         27.5840    7.8150   23.0870 N.3   142  GLU142     -0.1245
     67  CA        27.3060    8.7910   22.0440 C.3   142  GLU142      0.1567
     68  C         27.7930   10.1810   22.4350 C.2   142  GLU142      0.2260
     69  O         27.0380   10.9830   22.9800 O.2   142  GLU142     -0.2867
     70  CB        25.8130    8.8190   21.7160 C.3   142  GLU142      0.0388
     71  CG        25.2530    7.4500   21.3610 C.3   142  GLU142      0.1160
     72  CD        24.2430    7.4950   20.2350 C.2   142  GLU142      0.3649
     73  OE1       23.5110    8.5030   20.1290 O.co2 142  GLU142     -0.2457
     74  OE2       24.1930    6.5170   19.4560 O.co2 142  GLU142     -0.2457
     75  N         23.3020   14.3950   16.0430 N.3   276  TYR276     -0.1241
     76  CA        22.7390   13.2250   16.7100 C.3   276  TYR276      0.1605
     77  C         22.0290   12.3410   15.7020 C.2   276  TYR276      0.2264
     78  O         22.3770   11.1690   15.5200 O.2   276  TYR276     -0.2867
     79  CB        21.7640   13.5850   17.8580 C.3   276  TYR276      0.0534
     80  CG        20.8720   12.4020   18.2370 C.ar  276  TYR276     -0.0201
     81  CD1       19.4850   12.5220   18.3240 C.ar  276  TYR276     -0.0009
     82  CD2       21.4240   11.1440   18.4540 C.ar  276  TYR276     -0.0009
     83  CE1       18.6810   11.4140   18.6280 C.ar  276  TYR276      0.0417
     84  CE2       20.6290   10.0450   18.7660 C.ar  276  TYR276      0.0417
     85  CZ        19.2640   10.1790   18.8490 C.ar  276  TYR276      0.1957
     86  OH        18.5130    9.0570   19.1390 O.3   276  TYR276     -0.2866
     87  N         23.2800    8.2230   14.8850 N.3   280  VAL280     -0.1245
     88  CA        22.5680    6.9730   15.1280 C.3   280  VAL280      0.1561
     89  C         22.4740    6.1290   13.8850 C.2   280  VAL280      0.2260
     90  O         23.3260    5.2940   13.6140 O.2   280  VAL280     -0.2867
     91  CB        21.1260    7.2260   15.4250 C.3   280  VAL280      0.0252
     92  CG1       20.7670    6.6390   16.7670 C.3   280  VAL280      0.0019
     93  CG2       20.8380    8.7100   15.3080 C.3   280  VAL280      0.0019
     94  N         14.6870    0.6790   21.6730 N.3   293  PHE293     -0.1227
     95  CA        13.7170    1.0210   22.7040 C.3   293  PHE293      0.1736
     96  C         14.2860    2.2240   23.4250 C.2   293  PHE293      0.2595
     97  O         15.2820    2.1090   24.1300 O.2   293  PHE293     -0.2718
     98  CB        13.5380   -0.1120   23.7060 C.3   293  PHE293      0.0547
     99  CG        13.0650   -1.4110   23.1130 C.ar  293  PHE293     -0.0202
    100  CD1       12.7200   -1.5180   21.8000 C.ar  293  PHE293     -0.0042
    101  CD2       12.9650   -2.5420   23.8990 C.ar  293  PHE293     -0.0042
    102  CE1       12.2960   -2.7300   21.2960 C.ar  293  PHE293     -0.0003
    103  CE2       12.5330   -3.7520   23.3860 C.ar  293  PHE293     -0.0003
    104  CZ        12.2110   -3.8490   22.1040 C.ar  293  PHE293     -0.0000
    105  N         13.6760    3.3850   23.2500 N.am  294  ARG294     -0.1966
    106  CA        14.2820    4.5950   23.7710 C.3   294  ARG294      0.1729
    107  C         13.2880    5.5570   24.3980 C.2   294  ARG294      0.2616
    108  O         12.0830    5.2860   24.5000 O.2   294  ARG294     -0.2715
    109  CB        15.0520    5.3200   22.6660 C.3   294  ARG294      0.0348
    110  CG        14.1890    5.8000   21.5070 C.3   294  ARG294      0.0492
    111  CD        14.9270    6.7810   20.6190 C.3   294  ARG294      0.2205
    112  NE        15.3540    6.1760   19.3620 N.pl3 294  ARG294     -0.0865
    113  CZ        14.9300    6.5540   18.1610 C.cat 294  ARG294      0.5346
    114  NH1       14.0690    7.5500   18.0380 N.pl3 294  ARG294      0.1354
    115  NH2       15.3770    5.9410   17.0760 N.pl3 294  ARG294      0.1354
    116  N         13.8200    6.7040   24.8020 N.am  295  GLY295     -0.1955
    117  CA        13.0300    7.7440   25.4270 C.3   295  GLY295      0.1869
    118  C         12.0370    8.5040   24.5640 C.2   295  GLY295      0.2309
    119  O         12.4100    9.2340   23.6530 O.2   295  GLY295     -0.2863
    120  N         11.3570   11.0690   24.6040 N.3   297  ASP297     -0.1225
    121  CA        11.8630   12.3790   24.2270 C.3   297  ASP297      0.1805
    122  C         12.3090   12.3670   22.7640 C.2   297  ASP297      0.2597
    123  O         12.5780   13.4120   22.1780 O.2   297  ASP297     -0.2718
    124  CB        12.9670   12.8900   25.1810 C.3   297  ASP297      0.1424
    125  CG        14.2370   12.0310   25.1700 C.2   297  ASP297      0.3668
    126  OD1       15.3550   12.6120   25.1880 O.co2 297  ASP297     -0.2456
    127  OD2       14.1230   10.7870   25.1710 O.co2 297  ASP297     -0.2456
    128  N         12.3230   11.1760   22.1700 N.am  298  HIS298     -0.1975
    129  CA        12.8700   10.9530   20.8290 C.3   298  HIS298      0.1656
    130  C         11.8380   10.5840   19.7420 C.2   298  HIS298      0.2291
    131  O         12.1920   10.3170   18.5920 O.2   298  HIS298     -0.2864
    132  CB        13.9610    9.8720   20.8880 C.3   298  HIS298      0.0771
    133  CG        15.3120   10.3990   21.2490 C.ar  298  HIS298      0.0820
    134  ND1       15.7490   11.6470   20.8580 N.ar  298  HIS298     -0.2267
    135  CD2       16.3290    9.8480   21.9500 C.ar  298  HIS298      0.1154
    136  CE1       16.9720   11.8470   21.3130 C.ar  298  HIS298      0.1986
    137  NE2       17.3490   10.7710   21.9800 N.ar  298  HIS298     -0.2212
    138  N          8.0140    5.8780   27.9410 N.3   323  PRO323     -0.2102
    139  CA         7.8760    7.1520   28.6680 C.3   323  PRO323      0.1504
    140  C          9.0400    7.4950   29.6270 C.2   323  PRO323      0.2576
    141  O          9.8220    6.6370   30.0370 O.2   323  PRO323     -0.2718
    142  CB         6.5770    6.9680   29.4720 C.3   323  PRO323      0.0282
    143  CG         5.9000    5.7940   28.8730 C.3   323  PRO323      0.0208
    144  CD         6.9700    4.9140   28.3220 C.3   323  PRO323      0.0893
    145  N          9.1210    8.7690   29.9930 N.am  324  LEU324     -0.1966
    146  CA        10.1510    9.2550   30.8910 C.3   324  LEU324      0.1728
    147  C          9.7470    9.0770   32.3530 C.2   324  LEU324      0.2616
    148  O          8.5670    8.9620   32.6560 O.2   324  LEU324     -0.2715
    149  CB        10.3860   10.7340   30.6210 C.3   324  LEU324      0.0311
    150  CG        10.5480   11.1170   29.1600 C.3   324  LEU324      0.0022
    151  CD1       10.7900   12.6150   29.0420 C.3   324  LEU324      0.0001
    152  CD2       11.6800   10.3320   28.5320 C.3   324  LEU324      0.0001
    153  N         10.7230    9.0470   33.2600 N.am  325  ILE325     -0.1977
    154  CA        10.4030    9.2160   34.6700 C.3   325  ILE325      0.1596
    155  C         10.6590   10.6710   34.9820 C.2   325  ILE325      0.2287
    156  O         11.6510   11.2360   34.5410 O.2   325  ILE325     -0.2864
    157  CB        11.2270    8.3460   35.6120 C.3   325  ILE325      0.0276
    158  CG1       12.5210    9.0330   35.9760 C.3   325  ILE325      0.0022
    159  CG2       11.5060    7.0040   35.0190 C.3   325  ILE325      0.0022
    160  CD1       13.3940    8.1660   36.8320 C.3   325  ILE325      0.0001
    161  N         10.7840   15.8410   32.9100 N.3   332  PRO332     -0.2102
    162  CA        11.7560   14.7540   32.8380 C.3   332  PRO332      0.1504
    163  C         13.0360   15.0430   33.5960 C.2   332  PRO332      0.2576
    164  O         13.4740   16.1900   33.6800 O.2   332  PRO332     -0.2718
    165  CB        12.0640   14.6640   31.3450 C.3   332  PRO332      0.0282
    166  CG        10.9640   15.3680   30.6640 C.3   332  PRO332      0.0208
    167  CD        10.5560   16.4550   31.5960 C.3   332  PRO332      0.0893
    168  N         13.6320   13.9840   34.1330 N.am  333  LEU333     -0.1966
    169  CA        14.9410   14.0490   34.7490 C.3   333  LEU333      0.1728
    170  C         15.9380   14.3360   33.6480 C.2   333  LEU333      0.2617
    171  O         15.5550   14.4480   32.4840 O.2   333  LEU333     -0.2715
    172  CB        15.2550   12.7090   35.3980 C.3   333  LEU333      0.0311
    173  CG        14.3260   12.3350   36.5610 C.3   333  LEU333      0.0022
    174  CD1       14.8170   11.1040   37.3160 C.3   333  LEU333      0.0001
    175  CD2       14.1690   13.5190   37.5040 C.3   333  LEU333      0.0001
    176  N         17.2150   14.4470   33.9940 N.am  334  SER334     -0.1936
    177  CA        18.2210   14.8220   33.0070 C.3   334  SER334      0.2055
    178  C         19.6180   14.8660   33.5920 C.2   334  SER334      0.2642
    179  O         19.8450   14.4550   34.7280 O.2   334  SER334     -0.2714
    180  CB        17.9030   16.2050   32.4520 C.3   334  SER334      0.2130
    181  OG        17.9860   17.1800   33.4750 O.3   334  SER334     -0.2179
    182  N         20.5530   15.3710   32.7920 N.am  335  LYS335     -0.1977
    183  CA        21.8790   15.7350   33.2680 C.3   335  LYS335      0.1596
    184  C         21.7220   16.9180   34.2280 C.2   335  LYS335      0.2287
    185  O         22.3710   16.9870   35.2780 O.2   335  LYS335     -0.2864
    186  CB        22.7740   16.1140   32.0790 C.3   335  LYS335      0.0298
    187  CG        22.0300   16.3120   30.7530 C.3   335  LYS335      0.0038
    188  CD        21.8220   15.0030   30.0060 C.3   335  LYS335      0.0206
    189  CE        20.7220   15.1220   28.9660 C.3   335  LYS335      0.1093
    190  NZ        20.7460   13.9520   28.0470 N.3   335  LYS335     -0.1314
@<TRIPOS>BOND
     1    90    89    2
     2    89    88    1
     3    87    88    1
     4    88    91    1
     5    93    91    1
     6    91    92    1
     7    78    77    2
     8    77    76    1
     9    75    76    1
    10    76    79    1
    11   115   113    1
    12    79    80    1
    13   114   113    1
    14   113   112    2
    15    80    81   ar
    16    80    82   ar
    17    81    83   ar
    18    82    84   ar
    19   131   130    2
    20    83    85   ar
    21    84    85   ar
    22    85    86    1
    23    11     9    1
    24   112   111    1
    25    74    72   ar
    26     8     9    2
    27     8     7    1
    28   130   129    1
    29     9    10    1
    30    73    72   ar
    31     6     7    1
    32     6     5    1
    33    72    71    1
    34   111   110    1
    35   129   132    1
    36   129   128    1
    37   134   133   ar
    38   134   136   ar
    39   132   133    1
    40     5     2    1
    41   133   135   ar
    42   102   100   ar
    43   102   104   ar
    44   136   137   ar
    45    71    70    1
    46   110   109    1
    47    94    95    1
    48    70    67    1
    49   100    99   ar
    50   135   137   ar
    51     1     2    1
    52    67    68    1
    53    67    66    1
    54   104   103   ar
    55   128   122   am
    56   123   122    2
    57    27    24    1
    58     2     3    1
    59    68    69    2
    60   109   106    1
    61    95    96    1
    62    95    98    1
    63   122   121    1
    64    99    98    1
    65    99   101   ar
    66   105    96   am
    67   105   106    1
    68   103   101   ar
    69    96    97    2
    70     3     4    2
    71     3    12   am
    72   119   118    2
    73   106   107    1
    74    24    23    1
    75    24    25    1
    76    26    25    2
    77   121   120    1
    78   121   124    1
    79   107   108    2
    80   107   116   am
    81    12    13    1
    82    23    14   am
    83    25    28   am
    84   118   117    1
    85   116   117    1
    86    14    15    2
    87    14    13    1
    88    39    36    1
    89    39    40    1
    90   125   127   ar
    91   125   124    1
    92   125   126   ar
    93    31    30    2
    94    13    16    1
    95    28    34    1
    96    28    29    1
    97    36    35    1
    98    36    37    1
    99    30    35   am
   100    30    29    1
   101    34    33    1
   102    29    32    1
   103    16    17    1
   104    37    38    2
   105    33    32    1
   106    17    18   ar
   107    17    19   ar
   108   138   144    1
   109   138   139    1
   110    18    20   ar
   111   190   189    1
   112    62    61    2
   113   144   143    1
   114   152   150    1
   115    19    21   ar
   116   139   142    1
   117   139   140    1
   118    64    63    1
   119   143   142    1
   120    20    22   ar
   121   189   188    1
   122   151   150    1
   123   150   149    1
   124    63    60    1
   125    63    65    1
   126    21    22   ar
   127    61    60    1
   128   140   145   am
   129   140   141    2
   130    60    59    1
   131   145   146    1
   132   188   187    1
   133   149   146    1
   134   166   165    1
   135   166   167    1
   136   187   186    1
   137   146   147    1
   138   165   162    1
   139   167   161    1
   140    58    57    2
   141    56    57    1
   142    56    55    1
   143   186   183    1
   144   147   148    2
   145   147   153   am
   146   180   177    1
   147   180   181    1
   148   171   170    2
   149   182   183    1
   150   182   178   am
   151    50    49   ar
   152    50    48   ar
   153    55    53   am
   154   162   161    1
   155   162   163    1
   156    54    53    2
   157   177   178    1
   158   177   176    1
   159    49    47   ar
   160   153   154    1
   161   183   184    1
   162    53    52    1
   163   178   179    2
   164   163   164    2
   165   163   168   am
   166   170   176   am
   167   170   169    1
   168    48    46   ar
   169   168   169    1
   170    52    51    1
   171   184   185    2
   172    47    46   ar
   173   156   155    2
   174   154   155    1
   175   154   157    1
   176   169   172    1
   177    46    45    1
   178   159   157    1
   179   172   173    1
   180   157   158    1
   181    41    42    1
   182    44    43    2
   183   158   160    1
   184    45    42    1
   185   173   174    1
   186   173   175    1
   187    42    43    1
