@<TRIPOS>MOLECULE
tmp/3al6B00.pdb
 124 114 0 0 0
SMALL
GASTEIGER

@<TRIPOS>ATOM
      1  N        -52.9360  -11.9360   -0.0310 N.3   103  TYR103     -0.1241
      2  CA       -54.1460  -12.7370    0.0890 C.3   103  TYR103      0.1605
      3  C        -54.4290  -13.2140    1.5170 C.2   103  TYR103      0.2264
      4  O        -53.6500  -13.9660    2.1110 O.2   103  TYR103     -0.2867
      5  CB       -54.1350  -13.9380   -0.8490 C.3   103  TYR103      0.0534
      6  CG       -55.4560  -14.6500   -0.8310 C.ar  103  TYR103     -0.0201
      7  CD1      -56.6310  -13.9510   -1.0580 C.ar  103  TYR103     -0.0009
      8  CD2      -55.5420  -16.0100   -0.5620 C.ar  103  TYR103     -0.0009
      9  CE1      -57.8480  -14.5780   -1.0330 C.ar  103  TYR103      0.0417
     10  CE2      -56.7620  -16.6540   -0.5420 C.ar  103  TYR103      0.0417
     11  CZ       -57.9060  -15.9210   -0.7770 C.ar  103  TYR103      0.1957
     12  OH       -59.1300  -16.5190   -0.7470 O.3   103  TYR103     -0.2866
     13  N        -62.1960  -13.0350    3.3130 N.3   146  ARG146     -0.1245
     14  CA       -61.4020  -13.1200    2.1000 C.3   146  ARG146      0.1563
     15  C        -61.0350  -11.7240    1.7320 C.2   146  ARG146      0.2260
     16  O        -61.9060  -10.9000    1.4600 O.2   146  ARG146     -0.2867
     17  CB       -62.2020  -13.7310    0.9690 C.3   146  ARG146      0.0307
     18  CG       -62.7320  -15.0840    1.2980 C.3   146  ARG146      0.0489
     19  CD       -61.6750  -16.1380    1.1530 C.3   146  ARG146      0.2205
     20  NE       -62.2970  -17.4250    1.3830 N.pl3 146  ARG146     -0.0865
     21  CZ       -61.8930  -18.5660    0.8460 C.cat 146  ARG146      0.5346
     22  NH1      -60.8540  -18.5930    0.0300 N.pl3 146  ARG146      0.1354
     23  NH2      -62.5380  -19.6850    1.1260 N.pl3 146  ARG146      0.1354
     24  N        -58.1680   -9.5710   -0.7110 N.3   148  SER148     -0.1217
     25  CA       -57.1320   -9.7140   -1.7150 C.3   148  SER148      0.1889
     26  C        -56.7670   -8.4100   -2.3720 C.2   148  SER148      0.2288
     27  O        -57.5590   -7.4790   -2.4360 O.2   148  SER148     -0.2866
     28  CB       -57.5540  -10.7230   -2.7640 C.3   148  SER148      0.2089
     29  OG       -58.9340  -10.5860   -2.9930 O.3   148  SER148     -0.2183
     30  N        -56.1840  -16.2450   -7.6500 N.3   154  LEU154     -0.1245
     31  CA       -56.2340  -17.5080   -6.9550 C.3   154  LEU154      0.1561
     32  C        -56.2430  -18.6220   -8.0100 C.2   154  LEU154      0.2260
     33  O        -56.1030  -18.3530   -9.1960 O.2   154  LEU154     -0.2867
     34  CB       -57.4800  -17.5300   -6.0570 C.3   154  LEU154      0.0270
     35  CG       -57.5860  -18.5480   -4.9140 C.3   154  LEU154      0.0019
     36  CD1      -56.1990  -19.0040   -4.4190 C.3   154  LEU154      0.0001
     37  CD2      -58.4320  -17.9840   -3.7830 C.3   154  LEU154      0.0001
     38  N        -60.0370  -24.4480   -7.6970 N.3   157  HIS157     -0.1241
     39  CA       -60.1810  -25.4890   -6.7100 C.3   157  HIS157      0.1621
     40  C        -61.6620  -25.7020   -6.5520 C.2   157  HIS157      0.2264
     41  O        -62.4740  -24.8970   -7.0160 O.2   157  HIS157     -0.2867
     42  CB       -59.5920  -25.0350   -5.3720 C.3   157  HIS157      0.0745
     43  CG       -60.3260  -23.8900   -4.7460 C.ar  157  HIS157      0.0817
     44  ND1      -59.9270  -22.5780   -4.8940 N.ar  157  HIS157     -0.2268
     45  CD2      -61.4390  -23.8590   -3.9780 C.ar  157  HIS157      0.1154
     46  CE1      -60.7560  -21.7890   -4.2360 C.ar  157  HIS157      0.1986
     47  NE2      -61.6830  -22.5410   -3.6690 N.ar  157  HIS157     -0.2212
     48  N        -64.5530  -27.1060   -3.3740 N.3   159  ASP159     -0.1239
     49  CA       -64.7260  -27.2100   -1.9320 C.3   159  ASP159      0.1674
     50  C        -65.7830  -28.2840   -1.6660 C.2   159  ASP159      0.2266
     51  O        -66.6370  -28.5700   -2.5040 O.2   159  ASP159     -0.2867
     52  CB       -65.2150  -25.8750   -1.3390 C.3   159  ASP159      0.1410
     53  CG       -64.1070  -24.8440   -1.1710 C.2   159  ASP159      0.3668
     54  OD1      -64.1200  -23.8120   -1.8810 O.co2 159  ASP159     -0.2456
     55  OD2      -63.2330  -25.0550   -0.3020 O.co2 159  ASP159     -0.2456
     56  N        -71.5550  -23.1840   -0.1880 N.3   163  ASN163     -0.1240
     57  CA       -70.8180  -21.9820    0.1130 C.3   163  ASN163      0.1653
     58  C        -71.5850  -20.8110   -0.4490 C.2   163  ASN163      0.2266
     59  O        -72.0840  -20.8890   -1.5750 O.2   163  ASN163     -0.2867
     60  CB       -69.4220  -22.0950   -0.5090 C.3   163  ASN163      0.1155
     61  CG       -68.5800  -20.8690   -0.2870 C.2   163  ASN163      0.2627
     62  OD1      -68.7070  -20.1950    0.7340 O.2   163  ASN163     -0.2716
     63  ND2      -67.7120  -20.5660   -1.2400 N.am  163  ASN163     -0.0877
     64  N        -70.5500  -17.0610   -1.2170 N.3   165  LEU165     -0.1245
     65  CA       -69.4670  -16.0990   -1.2420 C.3   165  LEU165      0.1561
     66  C        -70.0470  -14.6790   -1.2890 C.2   165  LEU165      0.2260
     67  O        -70.6760  -14.2900   -2.2610 O.2   165  LEU165     -0.2867
     68  CB       -68.5820  -16.3710   -2.4590 C.3   165  LEU165      0.0270
     69  CG       -67.4240  -15.4110   -2.7470 C.3   165  LEU165      0.0019
     70  CD1      -66.5310  -15.1950   -1.5140 C.3   165  LEU165      0.0001
     71  CD2      -66.6450  -15.9800   -3.9100 C.3   165  LEU165      0.0001
     72  N        -65.2340   -8.6980   -8.2000 N.3   172  LYS172     -0.1245
     73  CA       -64.6410  -10.0110   -8.3220 C.3   172  LYS172      0.1561
     74  C        -65.1600  -10.6930   -9.5830 C.2   172  LYS172      0.2260
     75  O        -66.3690  -10.7810   -9.7840 O.2   172  LYS172     -0.2867
     76  CB       -65.0640  -10.8510   -7.1110 C.3   172  LYS172      0.0271
     77  CG       -63.9300  -11.4630   -6.3280 C.3   172  LYS172      0.0035
     78  CD       -64.3760  -12.0240   -4.9850 C.3   172  LYS172      0.0206
     79  CE       -63.3220  -11.7130   -3.9140 C.3   172  LYS172      0.1093
     80  NZ       -63.7200  -12.0580   -2.5120 N.3   172  LYS172     -0.1314
     81  N        -72.2650  -21.2150   -4.4410 N.3   226  ILE226     -0.1245
     82  CA       -71.3780  -22.1900   -5.0680 C.3   226  ILE226      0.1561
     83  C        -71.6190  -23.5690   -4.4730 C.2   226  ILE226      0.2260
     84  O        -71.0700  -23.9080   -3.4070 O.2   226  ILE226     -0.2867
     85  CB       -69.8830  -21.9190   -4.7970 C.3   226  ILE226      0.0252
     86  CG1      -69.4520  -20.5260   -5.2100 C.3   226  ILE226      0.0019
     87  CG2      -69.0570  -22.8700   -5.5970 C.3   226  ILE226      0.0019
     88  CD1      -67.9440  -20.3540   -5.1300 C.3   226  ILE226      0.0001
     89  N        -64.0810  -23.4100   -9.1520 N.3   232  HIS232     -0.1241
     90  CA       -64.2360  -21.9990   -9.3200 C.3   232  HIS232      0.1621
     91  C        -62.8990  -21.3040   -9.2930 C.2   232  HIS232      0.2264
     92  O        -61.9310  -21.7740   -8.6900 O.2   232  HIS232     -0.2867
     93  CB       -65.1850  -21.4080   -8.2970 C.3   232  HIS232      0.0745
     94  CG       -64.8550  -21.7550   -6.8730 C.ar  232  HIS232      0.0817
     95  ND1      -65.3000  -22.9080   -6.2680 N.ar  232  HIS232     -0.2268
     96  CD2      -64.1590  -21.0780   -5.9280 C.ar  232  HIS232      0.1154
     97  CE1      -64.8720  -22.9440   -5.0190 C.ar  232  HIS232      0.1986
     98  NE2      -64.1820  -21.8410   -4.7830 N.ar  232  HIS232     -0.2212
     99  N        -61.4280  -17.3810   -8.8960 N.3   234  VAL234     -0.1245
    100  CA       -61.6960  -15.9770   -8.6060 C.3   234  VAL234      0.1561
    101  C        -60.4890  -15.0630   -8.8770 C.2   234  VAL234      0.2260
    102  O        -59.3360  -15.4670   -8.7490 O.2   234  VAL234     -0.2867
    103  CB       -62.1700  -15.7440   -7.1460 C.3   234  VAL234      0.0252
    104  CG1      -62.7360  -17.0540   -6.4950 C.3   234  VAL234      0.0019
    105  CG2      -61.0360  -15.1820   -6.3610 C.3   234  VAL234      0.0019
    106  N        -67.2750  -15.4380    3.2840 N.3   244  ASN244     -0.1240
    107  CA       -67.9320  -16.5980    2.7430 C.3   244  ASN244      0.1653
    108  C        -68.2880  -17.5760    3.8550 C.2   244  ASN244      0.2266
    109  O        -67.5990  -17.6850    4.8660 O.2   244  ASN244     -0.2867
    110  CB       -67.0520  -17.2340    1.6560 C.3   244  ASN244      0.1155
    111  CG       -66.1610  -18.3500    2.1920 C.2   244  ASN244      0.2627
    112  OD1      -64.9280  -18.2240    2.1870 O.2   244  ASN244     -0.2716
    113  ND2      -66.7800  -19.4640    2.6300 N.am  244  ASN244     -0.0877
    114  N        -69.4010  -21.4770    4.7180 N.3   246  PHE246     -0.1241
    115  CA       -69.5350  -22.8630    4.3100 C.3   246  PHE246      0.1605
    116  C        -70.5960  -23.4900    5.1540 C.2   246  PHE246      0.2264
    117  O        -70.8710  -23.0190    6.2480 O.2   246  PHE246     -0.2867
    118  CB       -68.2440  -23.6500    4.4880 C.3   246  PHE246      0.0534
    119  CG       -67.1980  -23.3180    3.4990 C.ar  246  PHE246     -0.0203
    120  CD1      -67.4830  -23.3240    2.1470 C.ar  246  PHE246     -0.0042
    121  CD2      -65.9210  -23.0070    3.9110 C.ar  246  PHE246     -0.0042
    122  CE1      -66.5170  -23.0110    1.2250 C.ar  246  PHE246     -0.0003
    123  CE2      -64.9360  -22.6990    2.9840 C.ar  246  PHE246     -0.0003
    124  CZ       -65.2380  -22.6960    1.6400 C.ar  246  PHE246     -0.0000
@<TRIPOS>BOND
     1    75    74    2
     2    74    73    1
     3    90    91    1
     4    90    89    1
     5    90    93    1
     6    91    92    2
     7    33    32    2
     8    99   100    1
     9   101   102    2
    10   101   100    1
    11   100   103    1
    12    73    72    1
    13    73    76    1
    14    93    94    1
    15    32    31    1
    16    38    39    1
    17    30    31    1
    18   103   104    1
    19   103   105    1
    20    76    77    1
    21    41    40    2
    22    31    34    1
    23    94    95   ar
    24    94    96   ar
    25    39    40    1
    26    39    42    1
    27    77    78    1
    28    95    97   ar
    29    34    35    1
    30    96    98   ar
    31    87    85    1
    32    42    43    1
    33    86    88    1
    34    86    85    1
    35    82    85    1
    36    82    83    1
    37    82    81    1
    38    97    98   ar
    39    78    79    1
    40    35    36    1
    41    35    37    1
    42    44    43   ar
    43    44    46   ar
    44    43    45   ar
    45    83    84    2
    46    46    47   ar
    47    45    47   ar
    48    79    80    1
    49    71    69    1
    50    48    49    1
    51    29    28    1
    52    28    25    1
    53    69    68    1
    54    69    70    1
    55    51    50    2
    56    68    65    1
    57    27    26    2
    58    26    25    1
    59    67    66    2
    60    49    50    1
    61    49    52    1
    62    54    53   ar
    63    25    24    1
    64    59    58    2
    65    52    53    1
    66    66    65    1
    67    65    64    1
    68    63    61   am
    69    53    55   ar
    70     7     9   ar
    71     7     6   ar
    72     9    11   ar
    73     5     6    1
    74     5     2    1
    75     6     8   ar
    76    11    12    1
    77    11    10   ar
    78     8    10   ar
    79    60    61    1
    80    60    57    1
    81    58    57    1
    82    61    62    2
    83    56    57    1
    84     1     2    1
    85    22    21    1
    86     2     3    1
    87    21    23    1
    88    21    20    2
    89    17    18    1
    90    17    14    1
    91    19    18    1
    92    19    20    1
    93   122   124   ar
    94   122   120   ar
    95    16    15    2
    96     3     4    2
    97   124   123   ar
    98   110   111    1
    99   110   107    1
   100    15    14    1
   101    14    13    1
   102   120   119   ar
   103   112   111    2
   104   111   113   am
   105   107   106    1
   106   107   108    1
   107   123   121   ar
   108   119   121   ar
   109   119   118    1
   110   108   109    2
   111   115   118    1
   112   115   114    1
   113   115   116    1
   114   116   117    2
