@<TRIPOS>MOLECULE
tmp/3algA00.pdb
 208 205 0 0 0
SMALL
GASTEIGER

@<TRIPOS>ATOM
      1  N         32.1060   23.8610   19.2080 N.3     9  PHE9       -0.1241
      2  CA        32.3500   22.9030   20.2820 C.3     9  PHE9        0.1605
      3  C         31.1990   22.9430   21.2800 C.2     9  PHE9        0.2264
      4  O         30.5350   23.9700   21.4260 O.2     9  PHE9       -0.2867
      5  CB        33.7200   23.1100   20.9550 C.3     9  PHE9        0.0534
      6  CG        33.9120   24.4670   21.5840 C.ar    9  PHE9       -0.0203
      7  CD1       33.7080   24.6450   22.9510 C.ar    9  PHE9       -0.0042
      8  CD2       34.3330   25.5540   20.8200 C.ar    9  PHE9       -0.0042
      9  CE1       33.9010   25.8890   23.5460 C.ar    9  PHE9       -0.0003
     10  CE2       34.5210   26.8090   21.4040 C.ar    9  PHE9       -0.0003
     11  CZ        34.3090   26.9760   22.7700 C.ar    9  PHE9       -0.0000
     12  N         36.1440   18.7730   19.9010 N.3    31  PHE31      -0.1241
     13  CA        37.2470   18.0260   19.2850 C.3    31  PHE31       0.1605
     14  C         37.1340   16.5470   19.6290 C.2    31  PHE31       0.2264
     15  O         36.7390   16.1950   20.7500 O.2    31  PHE31      -0.2867
     16  CB        38.6010   18.4840   19.8490 C.3    31  PHE31       0.0534
     17  CG        38.9760   19.8850   19.4910 C.ar   31  PHE31      -0.0203
     18  CD1       39.5520   20.1720   18.2560 C.ar   31  PHE31      -0.0042
     19  CD2       38.7630   20.9210   20.3930 C.ar   31  PHE31      -0.0042
     20  CE1       39.8970   21.4750   17.9220 C.ar   31  PHE31      -0.0003
     21  CE2       39.1060   22.2270   20.0660 C.ar   31  PHE31      -0.0003
     22  CZ        39.6750   22.5040   18.8290 C.ar   31  PHE31      -0.0000
     23  N         43.7370   22.9610   21.1070 N.3    74  GLY74      -0.1210
     24  CA        44.6560   23.6730   21.9980 C.3    74  GLY74       0.1956
     25  C         44.8850   23.0610   23.3690 C.2    74  GLY74       0.2611
     26  O         45.9160   23.3160   23.9940 O.2    74  GLY74      -0.2717
     27  N         43.9430   22.2450   23.8320 N.am   75  ARG75      -0.1979
     28  CA        44.0210   21.6600   25.1730 C.3    75  ARG75       0.1597
     29  C         44.5330   20.2180   25.1850 C.2    75  ARG75       0.2287
     30  O         44.6480   19.6020   26.2490 O.2    75  ARG75      -0.2864
     31  CB        42.6560   21.7350   25.8570 C.3    75  ARG75       0.0334
     32  CG        42.1970   23.1540   26.1940 C.3    75  ARG75       0.0492
     33  CD        40.7660   23.1710   26.7350 C.3    75  ARG75       0.2205
     34  NE        40.6240   22.4090   27.9780 N.pl3  75  ARG75      -0.0865
     35  CZ        40.0780   21.1960   28.0670 C.cat  75  ARG75       0.5346
     36  NH1       39.6010   20.5850   26.9850 N.pl3  75  ARG75       0.1354
     37  NH2       40.0050   20.5900   29.2460 N.pl3  75  ARG75       0.1354
     38  N         48.3900   21.0980   18.0290 N.3   115  GLN115     -0.1231
     39  CA        48.9120   22.3990   18.4380 C.3   115  GLN115      0.1698
     40  C         49.7990   22.2760   19.6820 C.2   115  GLN115      0.2592
     41  O         49.3160   22.4720   20.7990 O.2   115  GLN115     -0.2718
     42  CB        47.7550   23.3830   18.6990 C.3   115  GLN115      0.0381
     43  CG        46.8550   23.6610   17.4910 C.3   115  GLN115      0.0905
     44  CD        45.5480   24.3600   17.8620 C.2   115  GLN115      0.2608
     45  OE1       45.5360   25.3510   18.5910 O.2   115  GLN115     -0.2717
     46  NE2       44.4450   23.8380   17.3570 N.am  115  GLN115     -0.0878
     47  N         51.0880   21.9670   19.5230 N.am  116  TYR116     -0.1976
     48  CA        51.7750   21.7790   18.2400 C.3   116  TYR116      0.1639
     49  C         52.7810   20.6440   18.3940 C.2   116  TYR116      0.2290
     50  O         53.1380   20.2950   19.5240 O.2   116  TYR116     -0.2864
     51  CB        52.5380   23.0570   17.8530 C.3   116  TYR116      0.0560
     52  CG        51.6340   24.2310   17.5750 C.ar  116  TYR116     -0.0198
     53  CD1       51.1110   24.4370   16.3040 C.ar  116  TYR116     -0.0009
     54  CD2       51.2740   25.1160   18.5930 C.ar  116  TYR116     -0.0009
     55  CE1       50.2640   25.5060   16.0450 C.ar  116  TYR116      0.0417
     56  CE2       50.4240   26.1840   18.3460 C.ar  116  TYR116      0.0417
     57  CZ        49.9250   26.3700   17.0690 C.ar  116  TYR116      0.1957
     58  OH        49.0850   27.4300   16.8140 O.3   116  TYR116     -0.2866
     59  N         49.4700   26.8980   12.4160 N.3   156  SER156     -0.1202
     60  CA        49.9310   28.2060   12.8510 C.3   156  SER156      0.2020
     61  C         49.9010   29.2220   11.7070 C.2   156  SER156      0.2618
     62  O         50.0160   28.8580   10.5320 O.2   156  SER156     -0.2717
     63  CB        51.3550   28.0750   13.3930 C.3   156  SER156      0.2103
     64  OG        51.7360   29.2720   14.0370 O.3   156  SER156     -0.2182
     65  N         49.7490   30.4970   12.0610 N.am  157  ASN157     -0.1974
     66  CA        49.7090   31.5880   11.0880 C.3   157  ASN157      0.1688
     67  C         50.8820   31.5510   10.1040 C.2   157  ASN157      0.2292
     68  O         50.7200   31.8410    8.9200 O.2   157  ASN157     -0.2864
     69  CB        49.6800   32.9260   11.8250 C.3   157  ASN157      0.1181
     70  CG        49.5470   34.1080   10.8910 C.2   157  ASN157      0.2629
     71  OD1       48.5260   34.2760   10.2280 O.2   157  ASN157     -0.2716
     72  ND2       50.5770   34.9500   10.8520 N.am  157  ASN157     -0.0877
     73  N         57.2120   28.0260   17.0670 N.3   162  ASN162     -0.1240
     74  CA        58.0990   27.6690   18.1780 C.3   162  ASN162      0.1653
     75  C         59.4950   27.2370   17.7020 C.2   162  ASN162      0.2266
     76  O         60.0960   26.3170   18.2580 O.2   162  ASN162     -0.2867
     77  CB        57.4490   26.5880   19.0620 C.3   162  ASN162      0.1155
     78  CG        56.0760   27.0000   19.5760 C.2   162  ASN162      0.2627
     79  OD1       55.8100   28.1860   19.7840 O.2   162  ASN162     -0.2716
     80  ND2       55.1970   26.0220   19.7780 N.am  162  ASN162     -0.0877
     81  N         45.3930   29.5680   11.2090 N.3   181  MET181     -0.1245
     82  CA        44.9600   30.1940   12.4540 C.3   181  MET181      0.1570
     83  C         45.5330   31.6090   12.5500 C.2   181  MET181      0.2261
     84  O         46.4980   31.8640   13.2780 O.2   181  MET181     -0.2867
     85  CB        45.3360   29.3320   13.6630 C.3   181  MET181      0.0387
     86  CG        44.6140   27.9920   13.6820 C.3   181  MET181      0.0595
     87  SD        44.9240   27.0520   15.1840 S.3   181  MET181     -0.1393
     88  CE        46.5360   26.3610   14.8240 C.3   181  MET181      0.0692
     89  N         45.0450   34.2890   14.0640 N.3   183  TYR183     -0.1227
     90  CA        44.5720   34.9300   15.2870 C.3   183  TYR183      0.1736
     91  C         45.4720   34.4860   16.4380 C.2   183  TYR183      0.2595
     92  O         46.3910   33.6930   16.2250 O.2   183  TYR183     -0.2718
     93  CB        43.0920   34.6140   15.5570 C.3   183  TYR183      0.0548
     94  CG        42.6520   33.1880   15.2550 C.ar  183  TYR183     -0.0200
     95  CD1       43.0400   32.1250   16.0770 C.ar  183  TYR183     -0.0009
     96  CD2       41.8290   32.9080   14.1600 C.ar  183  TYR183     -0.0009
     97  CE1       42.6230   30.8210   15.8150 C.ar  183  TYR183      0.0417
     98  CE2       41.4060   31.6030   13.8920 C.ar  183  TYR183      0.0417
     99  CZ        41.8080   30.5690   14.7230 C.ar  183  TYR183      0.1957
    100  OH        41.4040   29.2760   14.4640 O.3   183  TYR183     -0.2866
    101  N         45.2170   35.0070   17.6410 N.am  184  ASP184     -0.1960
    102  CA        46.0510   34.7400   18.8240 C.3   184  ASP184      0.1840
    103  C         47.5040   35.1830   18.6500 C.2   184  ASP184      0.2622
    104  O         48.4050   34.6140   19.2810 O.2   184  ASP184     -0.2715
    105  CB        46.0100   33.2510   19.2110 C.3   184  ASP184      0.1450
    106  CG        44.6840   32.8260   19.7960 C.2   184  ASP184      0.3671
    107  OD1       43.8620   33.7010   20.1400 O.co2 184  ASP184     -0.2456
    108  OD2       44.4640   31.5970   19.9210 O.co2 184  ASP184     -0.2456
    109  N         47.7410   36.1920   17.8090 N.am  185  PHE185     -0.1960
    110  CA        49.1040   36.7010   17.6140 C.3   185  PHE185      0.1771
    111  C         49.6380   37.2530   18.9320 C.2   185  PHE185      0.2619
    112  O         50.8200   37.0970   19.2570 O.2   185  PHE185     -0.2715
    113  CB        49.1600   37.8130   16.5580 C.3   185  PHE185      0.0574
    114  CG        48.6240   37.4250   15.1980 C.ar  185  PHE185     -0.0200
    115  CD1       48.7010   36.1140   14.7330 C.ar  185  PHE185     -0.0042
    116  CD2       48.0810   38.4000   14.3640 C.ar  185  PHE185     -0.0042
    117  CE1       48.2080   35.7730   13.4610 C.ar  185  PHE185     -0.0003
    118  CE2       47.5920   38.0710   13.0940 C.ar  185  PHE185     -0.0003
    119  CZ        47.6580   36.7560   12.6420 C.ar  185  PHE185     -0.0000
    120  N         48.7430   37.9080   19.6680 N.am  186  TYR186     -0.1974
    121  CA        49.0270   38.5160   20.9610 C.3   186  TYR186      0.1639
    122  C         47.8430   38.2340   21.8730 C.2   186  TYR186      0.2290
    123  O         46.7130   38.0950   21.4050 O.2   186  TYR186     -0.2864
    124  CB        49.2290   40.0270   20.7970 C.3   186  TYR186      0.0560
    125  CG        50.3510   40.3480   19.8380 C.ar  186  TYR186     -0.0198
    126  CD1       51.6800   40.3000   20.2570 C.ar  186  TYR186     -0.0009
    127  CD2       50.0860   40.6490   18.4990 C.ar  186  TYR186     -0.0009
    128  CE1       52.7210   40.5670   19.3750 C.ar  186  TYR186      0.0417
    129  CE2       51.1180   40.9130   17.6080 C.ar  186  TYR186      0.0417
    130  CZ        52.4330   40.8700   18.0540 C.ar  186  TYR186      0.1957
    131  OH        53.4630   41.1290   17.1840 O.3   186  TYR186     -0.2866
    132  N         47.8090   36.1720   28.0820 N.3   189  ASN189     -0.1225
    133  CA        48.5350   34.9930   28.5870 C.3   189  ASN189      0.1785
    134  C         49.9120   34.7310   27.9670 C.2   189  ASN189      0.2597
    135  O         50.6570   33.8720   28.4480 O.2   189  ASN189     -0.2718
    136  CB        47.6720   33.7250   28.4640 C.3   189  ASN189      0.1169
    137  CG        46.9690   33.3510   29.7670 C.2   189  ASN189      0.2627
    138  OD1       46.1770   32.4090   29.7970 O.2   189  ASN189     -0.2716
    139  ND2       47.2620   34.0720   30.8420 N.am  189  ASN189     -0.0877
    140  N         50.2510   35.4450   26.8970 N.am  190  TRP190     -0.1976
    141  CA        51.5860   35.3080   26.3060 C.3   190  TRP190      0.1640
    142  C         52.2880   36.6340   26.0150 C.2   190  TRP190      0.2290
    143  O         53.5100   36.6630   25.8260 O.2   190  TRP190     -0.2864
    144  CB        51.5910   34.3830   25.0720 C.3   190  TRP190      0.0576
    145  CG        50.5340   34.6450   24.0260 C.ar  190  TRP190      0.0006
    146  CD1       50.6850   35.3510   22.8620 C.ar  190  TRP190      0.0946
    147  CD2       49.1810   34.1610   24.0260 C.ar  190  TRP190      0.0152
    148  NE1       49.5070   35.3520   22.1520 N.ar  190  TRP190     -0.2442
    149  CE2       48.5690   34.6290   22.8410 C.ar  190  TRP190      0.0810
    150  CE3       48.4260   33.3830   24.9140 C.ar  190  TRP190      0.0012
    151  CZ2       47.2330   34.3520   22.5250 C.ar  190  TRP190      0.0191
    152  CZ3       47.0940   33.1030   24.5990 C.ar  190  TRP190      0.0001
    153  CH2       46.5150   33.5880   23.4130 C.ar  190  TRP190      0.0015
    154  N         53.8450   40.5960   11.9120 N.3   208  VAL208     -0.1245
    155  CA        53.0760   39.5300   12.5340 C.3   208  VAL208      0.1561
    156  C         51.6240   39.8100   12.1640 C.2   208  VAL208      0.2260
    157  O         50.9580   40.6320   12.7970 O.2   208  VAL208     -0.2867
    158  CB        53.2570   39.5040   14.0740 C.3   208  VAL208      0.0252
    159  CG1       52.4140   38.3970   14.6950 C.3   208  VAL208      0.0019
    160  CG2       54.7350   39.3240   14.4430 C.3   208  VAL208      0.0019
    161  N         40.4900   39.5640   23.1100 N.3   236  TYR236     -0.1241
    162  CA        41.1370   39.5500   24.4250 C.3   236  TYR236      0.1605
    163  C         41.0970   40.9200   25.0610 C.2   236  TYR236      0.2264
    164  O         41.2890   41.9240   24.3820 O.2   236  TYR236     -0.2867
    165  CB        42.6020   39.1130   24.3050 C.3   236  TYR236      0.0534
    166  CG        42.7630   37.6810   23.8730 C.ar  236  TYR236     -0.0201
    167  CD1       42.6000   36.6380   24.7840 C.ar  236  TYR236     -0.0009
    168  CD2       43.0700   37.3660   22.5490 C.ar  236  TYR236     -0.0009
    169  CE1       42.7380   35.3170   24.3900 C.ar  236  TYR236      0.0417
    170  CE2       43.2010   36.0480   22.1420 C.ar  236  TYR236      0.0417
    171  CZ        43.0300   35.0290   23.0670 C.ar  236  TYR236      0.1957
    172  OH        43.1670   33.7180   22.6760 O.3   236  TYR236     -0.2866
    173  N         40.7010   33.0600   33.1510 N.3   262  ASP262     -0.1225
    174  CA        41.9410   32.3670   32.7960 C.3   262  ASP262      0.1805
    175  C         42.8480   33.0820   31.7850 C.2   262  ASP262      0.2597
    176  O         44.0670   33.0950   31.9620 O.2   262  ASP262     -0.2718
    177  CB        41.6900   30.9000   32.3900 C.3   262  ASP262      0.1424
    178  CG        40.8040   30.7500   31.1570 C.2   262  ASP262      0.3668
    179  OD1       40.1890   31.7380   30.6910 O.co2 262  ASP262     -0.2456
    180  OD2       40.7100   29.6060   30.6570 O.co2 262  ASP262     -0.2456
    181  N         42.2650   33.6810   30.7450 N.am  263  ASP263     -0.1974
    182  CA        43.0710   34.2310   29.6460 C.3   263  ASP263      0.1709
    183  C         42.6410   35.6140   29.1300 C.2   263  ASP263      0.2293
    184  O         43.2080   36.1160   28.1550 O.2   263  ASP263     -0.2864
    185  CB        43.1240   33.2330   28.4820 C.3   263  ASP263      0.1436
    186  CG        41.7720   33.0430   27.8010 C.2   263  ASP263      0.3671
    187  OD1       40.7400   33.5180   28.3280 O.co2 263  ASP263     -0.2456
    188  OD2       41.7440   32.4090   26.7290 O.co2 263  ASP263     -0.2456
    189  N         39.9870   36.2800   27.5630 N.3   265  SER265     -0.1217
    190  CA        39.2110   36.1410   26.3230 C.3   265  SER265      0.1889
    191  C         37.7450   36.5270   26.5040 C.2   265  SER265      0.2288
    192  O         37.1910   36.4140   27.6010 O.2   265  SER265     -0.2866
    193  CB        39.3170   34.7270   25.7440 C.3   265  SER265      0.2089
    194  OG        38.5870   33.7880   26.5150 O.3   265  SER265     -0.2183
    195  N         36.5710   30.8010   13.9280 N.3   326  TRP326     -0.1241
    196  CA        36.6190   30.2360   15.2770 C.3   326  TRP326      0.1605
    197  C         36.0320   31.2620   16.2450 C.2   326  TRP326      0.2264
    198  O         36.6230   32.3220   16.4270 O.2   326  TRP326     -0.2867
    199  CB        38.0510   29.9100   15.7200 C.3   326  TRP326      0.0550
    200  CG        38.0510   29.3940   17.1270 C.ar  326  TRP326      0.0003
    201  CD1       38.1080   30.1370   18.2800 C.ar  326  TRP326      0.0946
    202  CD2       37.9030   28.0330   17.5360 C.ar  326  TRP326      0.0152
    203  NE1       38.0410   29.3140   19.3770 N.ar  326  TRP326     -0.2442
    204  CE2       37.9100   28.0180   18.9500 C.ar  326  TRP326      0.0810
    205  CE3       37.7890   26.8210   16.8470 C.ar  326  TRP326      0.0012
    206  CZ2       37.8040   26.8330   19.6860 C.ar  326  TRP326      0.0191
    207  CZ3       37.6790   25.6440   17.5790 C.ar  326  TRP326      0.0001
    208  CH2       37.6860   25.6590   18.9850 C.ar  326  TRP326      0.0015
@<TRIPOS>BOND
     1    68    67    2
     2    67    66    1
     3    71    70    2
     4    62    61    2
     5    72    70   am
     6    70    69    1
     7    66    69    1
     8    66    65    1
     9    81    82    1
    10    61    65   am
    11    61    60    1
    12   154   155    1
    13   156   155    1
    14   156   157    2
    15    59    60    1
    16    82    83    1
    17    82    85    1
    18   155   158    1
    19    83    84    2
    20   119   118   ar
    21   119   117   ar
    22    60    63    1
    23   118   116   ar
    24    63    64    1
    25   117   115   ar
    26    85    86    1
    27    86    87    1
    28    98    96   ar
    29    98    99   ar
    30   195   196    1
    31    89    90    1
    32   158   160    1
    33   158   159    1
    34    96    94   ar
    35   116   114   ar
    36   100    99    1
    37    99    97   ar
    38   115   114   ar
    39    88    87    1
    40   114   113    1
    41    94    93    1
    42    94    95   ar
    43   196   199    1
    44   196   197    1
    45    90    93    1
    46    90    91    1
    47   199   200    1
    48    97    95   ar
    49    55    53   ar
    50    55    57   ar
    51    92    91    2
    52   197   198    2
    53    53    52   ar
    54    91   101   am
    55   113   110    1
    56    58    57    1
    57   205   202   ar
    58   205   207   ar
    59    73    74    1
    60    57    56   ar
    61   200   202   ar
    62   200   201   ar
    63   131   130    1
    64    46    44   am
    65    43    44    1
    66    43    42    1
    67   202   204   ar
    68    52    51    1
    69    52    54   ar
    70   207   208   ar
    71   129   130   ar
    72   129   127   ar
    73   110   109    1
    74   110   111    1
    75   101   102    1
    76    75    74    1
    77    75    76    2
    78   109   103   am
    79    51    48    1
    80    44    45    2
    81    20    18   ar
    82    20    22   ar
    83    38    39    1
    84   130   128   ar
    85    74    77    1
    86    48    49    1
    87    48    47    1
    88    18    17   ar
    89   201   203   ar
    90    56    54   ar
    91    49    50    2
    92    39    42    1
    93    39    40    1
    94   127   125   ar
    95   103   102    1
    96   103   104    2
    97   102   105    1
    98    22    21   ar
    99   111   112    2
   100   111   120   am
   101   204   203   ar
   102   204   206   ar
   103   208   206   ar
   104    77    78    1
   105     1     2    1
   106   105   106    1
   107    13    14    1
   108    13    16    1
   109    13    12    1
   110   128   126   ar
   111    17    16    1
   112    17    19   ar
   113    47    40   am
   114    78    80   am
   115    78    79    2
   116    14    15    2
   117   120   121    1
   118    40    41    2
   119   106   108   ar
   120   106   107   ar
   121   125   126   ar
   122   125   124    1
   123    21    19   ar
   124     2     5    1
   125     2     3    1
   126   124   121    1
   127     8    10   ar
   128     8     6   ar
   129     5     6    1
   130   121   122    1
   131    23    24    1
   132     3     4    2
   133    10    11   ar
   134   123   122    2
   135     6     7   ar
   136    24    25    1
   137   170   168   ar
   138   170   171   ar
   139   148   149   ar
   140   148   146   ar
   141   151   149   ar
   142   151   153   ar
   143   168   166   ar
   144   172   171    1
   145    11     9   ar
   146   149   147   ar
   147   146   145   ar
   148     7     9   ar
   149   171   169   ar
   150   161   162    1
   151    25    27   am
   152    25    26    2
   153   153   152   ar
   154    27    28    1
   155   166   165    1
   156   166   167   ar
   157   145   147   ar
   158   145   144    1
   159   147   150   ar
   160   165   162    1
   161   164   163    2
   162   169   167   ar
   163   162   163    1
   164   152   150   ar
   165   144   141    1
   166    28    29    1
   167    28    31    1
   168    29    30    2
   169   193   190    1
   170   193   194    1
   171   143   142    2
   172    31    32    1
   173   142   141    1
   174    32    33    1
   175   141   140    1
   176   190   191    1
   177   190   189    1
   178   191   192    2
   179   188   186   ar
   180    33    34    1
   181   140   134   am
   182    36    35    1
   183   186   187   ar
   184   186   185    1
   185   134   135    2
   186   134   133    1
   187    34    35    2
   188    35    37    1
   189   132   133    1
   190   184   183    2
   191   136   133    1
   192   136   137    1
   193   185   182    1
   194   183   182    1
   195   182   181    1
   196   137   138    2
   197   137   139   am
   198   180   178   ar
   199   179   178   ar
   200   181   175   am
   201   178   177    1
   202   175   176    2
   203   175   174    1
   204   177   174    1
   205   174   173    1
