@<TRIPOS>MOLECULE
tmp/3alpB00.pdb
 82 81 0 0 0
SMALL
GASTEIGER

@<TRIPOS>ATOM
      1  N        -17.2120  -50.5400   26.5300 N.3   252  THR252     -0.1218
      2  CA       -18.5680  -49.9950   26.5300 C.3   252  THR252      0.1862
      3  C        -18.8930  -49.2390   27.8140 C.2   252  THR252      0.2287
      4  O        -18.1270  -49.2400   28.7910 O.2   252  THR252     -0.2866
      5  CB       -19.6480  -51.0780   26.2900 C.3   252  THR252      0.1770
      6  OG1      -19.9530  -51.7610   27.5200 O.3   252  THR252     -0.2211
      7  CG2      -19.1780  -52.0750   25.2390 C.3   252  THR252      0.0375
      8  N        -21.2430  -49.9580   29.5930 N.3   254  ASN254     -0.1225
      9  CA       -21.8400  -50.9300   30.4730 C.3   254  ASN254      0.1785
     10  C        -20.8770  -52.0750   30.7560 C.2   254  ASN254      0.2598
     11  O        -21.3130  -53.2080   30.9570 O.2   254  ASN254     -0.2718
     12  CB       -23.1290  -51.4750   29.8660 C.3   254  ASN254      0.1169
     13  CG       -24.2260  -50.4370   29.7990 C.2   254  ASN254      0.2627
     14  OD1      -24.1870  -49.5460   28.9620 O.2   254  ASN254     -0.2716
     15  ND2      -25.2310  -50.5640   30.6770 N.am  254  ASN254     -0.0877
     16  N        -19.5750  -51.7780   30.7660 N.am  255  GLY255     -0.1942
     17  CA       -18.5460  -52.7610   31.0830 C.3   255  GLY255      0.2014
     18  C        -17.7070  -53.1650   29.8790 C.2   255  GLY255      0.2640
     19  O        -17.8030  -52.5390   28.8190 O.2   255  GLY255     -0.2714
     20  N        -16.9000  -54.2180   30.0330 N.am  256  SER256     -0.1935
     21  CA       -15.9930  -54.6760   28.9740 C.3   256  SER256      0.2055
     22  C        -16.6810  -55.2060   27.7170 C.2   256  SER256      0.2643
     23  O        -17.8860  -55.4270   27.6850 O.2   256  SER256     -0.2714
     24  CB       -15.0250  -55.7290   29.5130 C.3   256  SER256      0.2130
     25  OG       -13.9230  -55.1150   30.1560 O.3   256  SER256     -0.2179
     26  N        -15.8950  -55.4100   26.6730 N.am  257  LEU257     -0.1963
     27  CA       -16.4410  -55.8000   25.3900 C.3   257  LEU257      0.1713
     28  C        -17.0790  -57.1710   25.5160 C.2   257  LEU257      0.2458
     29  O        -16.4740  -58.0910   26.0720 O.2   257  LEU257     -0.2730
     30  CB       -15.3340  -55.8050   24.3480 C.3   257  LEU257      0.0310
     31  CG       -15.5790  -55.0430   23.0480 C.3   257  LEU257      0.0022
     32  CD1      -16.3050  -53.7310   23.2760 C.3   257  LEU257      0.0001
     33  CD2      -14.2390  -54.7980   22.3770 C.3   257  LEU257      0.0001
     34  N        -18.2770  -57.2990   24.9750 N.am  258  PRO258     -0.2727
     35  CA       -19.1030  -58.4940   25.0960 C.3   258  PRO258      0.1402
     36  C        -18.6310  -59.5920   24.1690 C.2   258  PRO258      0.2269
     37  O        -17.7730  -59.3520   23.3410 O.2   258  PRO258     -0.2865
     38  CB       -20.4730  -57.9980   24.6620 C.3   258  PRO258      0.0296
     39  CG       -20.1920  -56.9070   23.7440 C.3   258  PRO258      0.0237
     40  CD       -18.9850  -56.2220   24.2770 C.3   258  PRO258      0.0939
     41  N        -29.3550  -57.0940   22.2590 N.3   277  SER277     -0.1202
     42  CA       -28.3530  -57.1120   23.3280 C.3   277  SER277      0.2020
     43  C        -27.1020  -56.2660   23.0320 C.2   277  SER277      0.2619
     44  O        -26.3730  -55.8660   23.9510 O.2   277  SER277     -0.2717
     45  CB       -27.9560  -58.5650   23.6390 C.3   277  SER277      0.2103
     46  OG       -26.5440  -58.7320   23.6630 O.3   277  SER277     -0.2182
     47  N        -26.8670  -55.9900   21.7530 N.am  278  LEU278     -0.1965
     48  CA       -25.6810  -55.2620   21.3320 C.3   278  LEU278      0.1728
     49  C        -25.8870  -53.7450   21.3450 C.2   278  LEU278      0.2616
     50  O        -24.9200  -52.9890   21.2950 O.2   278  LEU278     -0.2715
     51  CB       -25.2130  -55.7460   19.9530 C.3   278  LEU278      0.0311
     52  CG       -24.9310  -57.2540   19.8640 C.3   278  LEU278      0.0022
     53  CD1      -24.5800  -57.7170   18.4410 C.3   278  LEU278      0.0001
     54  CD2      -23.8330  -57.6320   20.8400 C.3   278  LEU278      0.0001
     55  N        -27.1360  -53.2920   21.4090 N.am  279  ALA279     -0.1963
     56  CA       -27.3960  -51.8600   21.5530 C.3   279  ALA279      0.1728
     57  C        -26.6890  -51.3500   22.7970 C.2   279  ALA279      0.2617
     58  O        -26.6150  -52.0610   23.8000 O.2   279  ALA279     -0.2715
     59  CB       -28.8820  -51.5810   21.6440 C.3   279  ALA279      0.0334
     60  N        -26.1660  -50.1260   22.7350 N.am  280  GLY280     -0.1940
     61  CA       -25.4230  -49.5610   23.8510 C.3   280  GLY280      0.2014
     62  C        -24.5800  -48.3800   23.4190 C.2   280  GLY280      0.2640
     63  O        -24.7950  -47.8280   22.3440 O.2   280  GLY280     -0.2714
     64  N        -23.6280  -47.9760   24.2540 N.am  281  THR281     -0.1936
     65  CA       -22.6650  -46.9560   23.8550 C.3   281  THR281      0.2028
     66  C        -21.2750  -47.5610   23.7610 C.2   281  THR281      0.2642
     67  O        -20.7520  -48.0960   24.7450 O.2   281  THR281     -0.2714
     68  CB       -22.6330  -45.7850   24.8330 C.3   281  THR281      0.1808
     69  OG1      -23.8960  -45.1190   24.8080 O.3   281  THR281     -0.2208
     70  CG2      -21.5750  -44.7980   24.4130 C.3   281  THR281      0.0379
     71  N        -20.6880  -47.4850   22.5700 N.am  282  TYR282     -0.1973
     72  CA       -19.3540  -48.0360   22.3250 C.3   282  TYR282      0.1639
     73  C        -18.2730  -46.9610   22.3280 C.2   282  TYR282      0.2290
     74  O        -18.4400  -45.8950   21.7330 O.2   282  TYR282     -0.2864
     75  CB       -19.3340  -48.8380   21.0260 C.3   282  TYR282      0.0560
     76  CG       -20.1400  -50.0950   21.1470 C.ar  282  TYR282     -0.0198
     77  CD1      -19.5620  -51.2580   21.6390 C.ar  282  TYR282     -0.0009
     78  CD2      -21.4870  -50.1150   20.8210 C.ar  282  TYR282     -0.0009
     79  CE1      -20.2920  -52.4150   21.7900 C.ar  282  TYR282      0.0417
     80  CE2      -22.2400  -51.2740   20.9730 C.ar  282  TYR282      0.0417
     81  CZ       -21.6290  -52.4230   21.4610 C.ar  282  TYR282      0.1957
     82  OH       -22.3430  -53.5840   21.6150 O.3   282  TYR282     -0.2866
@<TRIPOS>BOND
     1    53    52    1
     2    52    51    1
     3    52    54    1
     4    51    48    1
     5    78    80   ar
     6    78    76   ar
     7    80    81   ar
     8    75    76    1
     9    75    72    1
    10    76    77   ar
    11    50    49    2
    12    48    49    1
    13    48    47    1
    14    49    55   am
    15    55    56    1
    16    81    82    1
    17    81    79   ar
    18    56    59    1
    19    56    57    1
    20    77    79   ar
    21    74    73    2
    22    47    43   am
    23    41    42    1
    24    72    73    1
    25    72    71    1
    26    63    62    2
    27    33    31    1
    28    71    66   am
    29    60    57   am
    30    60    61    1
    31    57    58    2
    32    43    42    1
    33    43    44    2
    34    31    32    1
    35    31    30    1
    36    42    45    1
    37    37    36    2
    38    62    61    1
    39    62    64   am
    40    45    46    1
    41    39    40    1
    42    39    38    1
    43    66    65    1
    44    66    67    2
    45    65    64    1
    46    65    68    1
    47    36    35    1
    48    40    34    1
    49    30    27    1
    50    70    68    1
    51    38    35    1
    52    69    68    1
    53    34    35    1
    54    34    28   am
    55     7     5    1
    56    27    28    1
    57    27    26    1
    58    28    29    2
    59     5     2    1
    60     5     6    1
    61     2     1    1
    62     2     3    1
    63    26    22   am
    64    23    22    2
    65    22    21    1
    66     3     4    2
    67    19    18    2
    68    14    13    2
    69    21    24    1
    70    21    20    1
    71    24    25    1
    72     8     9    1
    73    13    12    1
    74    13    15   am
    75    12     9    1
    76    18    20   am
    77    18    17    1
    78     9    10    1
    79    10    16   am
    80    10    11    2
    81    16    17    1
