@<TRIPOS>MOLECULE
tmp/3am1A00.pdb
 130 123 0 0 0
SMALL
GASTEIGER

@<TRIPOS>ATOM
      1  N          8.7110   34.1310   57.9790 N.3    10  LEU10      -0.1231
      2  CA         9.7460   34.5990   58.8860 C.3    10  LEU10       0.1678
      3  C          9.1830   35.4810   60.0050 C.2    10  LEU10       0.2434
      4  O          8.0330   35.9130   59.9510 O.2    10  LEU10      -0.2733
      5  CB        10.8410   35.3410   58.1150 C.3    10  LEU10       0.0284
      6  CG        11.7340   34.4650   57.2340 C.3    10  LEU10       0.0019
      7  CD1       12.8720   35.2870   56.6650 C.3    10  LEU10       0.0001
      8  CD2       12.2790   33.2980   58.0310 C.3    10  LEU10       0.0001
      9  N          9.9940   35.7200   61.0450 N.am   11  PRO11      -0.2718
     10  CA         9.6160   36.6350   62.1220 C.3    11  PRO11       0.1535
     11  C          9.5640   38.0780   61.6430 C.2    11  PRO11       0.2599
     12  O         10.4610   38.5250   60.9370 O.2    11  PRO11      -0.2715
     13  CB        10.7490   36.4570   63.1390 C.3    11  PRO11       0.0310
     14  CG        11.2780   35.0960   62.8720 C.3    11  PRO11       0.0237
     15  CD        11.1960   34.9410   61.3900 C.3    11  PRO11       0.0939
     16  N          8.5300   38.7990   62.0580 N.am   12  GLY12      -0.1941
     17  CA         8.3490   40.1790   61.6670 C.3    12  GLY12       0.2014
     18  C          7.2430   40.2570   60.6360 C.2    12  GLY12       0.2639
     19  O          6.6510   41.3140   60.4130 O.2    12  GLY12      -0.2714
     20  N          6.9530   39.1210   60.0060 N.am   13  VAL13      -0.1963
     21  CA         5.9590   39.0930   58.9400 C.3    13  VAL13       0.1727
     22  C          4.5550   39.4070   59.4760 C.2    13  VAL13       0.2617
     23  O          3.8180   40.1700   58.8640 O.2    13  VAL13      -0.2715
     24  CB         6.0200   37.7750   58.0920 C.3    13  VAL13       0.0290
     25  CG1        5.5580   36.5520   58.8950 C.3    13  VAL13       0.0023
     26  CG2        5.2110   37.9190   56.8050 C.3    13  VAL13       0.0023
     27  N          4.1980   38.8420   60.6260 N.am   14  GLY14      -0.1940
     28  CA         2.9370   39.1740   61.2700 C.3    14  GLY14       0.2014
     29  C          2.0220   37.9900   61.4870 C.2    14  GLY14       0.2639
     30  O          0.8010   38.1190   61.3960 O.2    14  GLY14      -0.2714
     31  N          2.6110   36.8340   61.7790 N.am   15  LYS15      -0.1963
     32  CA         1.8400   35.6060   61.9910 C.3    15  LYS15       0.1728
     33  C          0.8510   35.6990   63.1550 C.2    15  LYS15       0.2617
     34  O         -0.3100   35.2980   63.0430 O.2    15  LYS15      -0.2715
     35  CB         2.7730   34.4170   62.2270 C.3    15  LYS15       0.0311
     36  CG         3.5810   33.9870   61.0330 C.3    15  LYS15       0.0038
     37  CD         4.2300   32.6320   61.2810 C.3    15  LYS15       0.0206
     38  CE         5.4570   32.7640   62.1480 C.3    15  LYS15       0.1093
     39  NZ         6.3780   33.7960   61.5930 N.3    15  LYS15      -0.1314
     40  N          1.3100   36.2080   64.2880 N.am   16  SER16      -0.1936
     41  CA         0.4540   36.2080   65.4630 C.3    16  SER16       0.2055
     42  C         -0.7440   37.1110   65.2320 C.2    16  SER16       0.2643
     43  O         -1.8940   36.6860   65.3780 O.2    16  SER16      -0.2714
     44  CB         1.2430   36.6070   66.6970 C.3    16  SER16       0.2130
     45  OG         2.3660   35.7570   66.8030 O.3    16  SER16      -0.2179
     46  N         -0.4800   38.3460   64.8260 N.am   17  THR17      -0.1950
     47  CA        -1.5680   39.2660   64.5580 C.3    17  THR17       0.1897
     48  C         -2.5090   38.6710   63.5290 C.2    17  THR17       0.2313
     49  O         -3.7330   38.7470   63.6550 O.2    17  THR17      -0.2863
     50  CB        -1.0610   40.5740   64.0430 C.3    17  THR17       0.1794
     51  OG1       -0.0910   41.0960   64.9600 O.3    17  THR17      -0.2208
     52  CG2       -2.2180   41.5290   63.9120 C.3    17  THR17       0.0378
     53  N         -4.7080   35.9030   65.2390 N.3    20  LYS20      -0.1245
     54  CA        -5.7570   36.4600   66.0800 C.3    20  LYS20       0.1561
     55  C         -6.9620   36.8670   65.2530 C.2    20  LYS20       0.2260
     56  O         -8.0920   36.4710   65.5560 O.2    20  LYS20      -0.2867
     57  CB        -5.2360   37.6600   66.8750 C.3    20  LYS20       0.0271
     58  CG        -4.5390   37.3000   68.1820 C.3    20  LYS20       0.0035
     59  CD        -3.0420   37.1110   68.0050 C.3    20  LYS20       0.0206
     60  CE        -2.2600   37.7800   69.1310 C.3    20  LYS20       0.1093
     61  NZ        -1.0040   38.3900   68.6080 N.3    20  LYS20      -0.1314
     62  N          5.6900   29.5550   71.1780 N.3    39  ASP39      -0.1239
     63  CA         5.8830   30.7390   72.0150 C.3    39  ASP39       0.1674
     64  C          4.9730   30.7390   73.2460 C.2    39  ASP39       0.2266
     65  O          5.3080   31.3200   74.2770 O.2    39  ASP39      -0.2867
     66  CB         5.7020   32.0220   71.2010 C.3    39  ASP39       0.1410
     67  CG         7.0290   32.6630   70.8480 C.2    39  ASP39       0.3668
     68  OD1        7.0410   33.8520   70.4750 O.co2  39  ASP39      -0.2456
     69  OD2        8.0720   31.9810   70.9680 O.co2  39  ASP39      -0.2456
     70  N          0.6290   29.0510   64.9740 N.3    76  ASP76      -0.1239
     71  CA         1.3290   30.3280   64.8780 C.3    76  ASP76       0.1674
     72  C          2.8320   30.1510   65.0340 C.2    76  ASP76       0.2266
     73  O          3.4250   30.6760   65.9660 O.2    76  ASP76      -0.2867
     74  CB         0.8020   31.3010   65.9450 C.3    76  ASP76       0.1410
     75  CG         1.4680   32.6780   65.8890 C.2    76  ASP76       0.3668
     76  OD1        0.8850   33.6250   66.4490 O.co2  76  ASP76      -0.2456
     77  OD2        2.5630   32.8280   65.3000 O.co2  76  ASP76      -0.2456
     78  N         10.6260   45.8190   59.5610 N.3   114  ARG114     -0.1245
     79  CA         9.6640   45.4620   60.5950 C.3   114  ARG114      0.1563
     80  C         10.3370   45.0790   61.8980 C.2   114  ARG114      0.2260
     81  O          9.8460   45.4250   62.9780 O.2   114  ARG114     -0.2867
     82  CB         8.7340   44.3440   60.1250 C.3   114  ARG114      0.0307
     83  CG         7.7740   44.7850   59.0380 C.3   114  ARG114      0.0489
     84  CD         6.5780   43.8520   58.9140 C.3   114  ARG114      0.2205
     85  NE         5.8210   44.1190   57.6940 N.pl3 114  ARG114     -0.0865
     86  CZ         4.5940   43.6700   57.4500 C.cat 114  ARG114      0.5346
     87  NH1        3.9650   42.9310   58.3530 N.pl3 114  ARG114      0.1354
     88  NH2        3.9910   43.9680   56.3050 N.pl3 114  ARG114      0.1354
     89  N         11.6560   48.2310   63.4510 N.3   117  GLU117     -0.1231
     90  CA        10.5090   48.9020   64.0520 C.3   117  GLU117      0.1699
     91  C         10.0970   48.2510   65.3580 C.2   117  GLU117      0.2592
     92  O          9.4640   48.8850   66.1960 O.2   117  GLU117     -0.2718
     93  CB         9.3240   48.8960   63.0970 C.3   117  GLU117      0.0402
     94  CG         9.5920   49.6090   61.7900 C.3   117  GLU117      0.1161
     95  CD         8.3150   49.9830   61.0680 C.2   117  GLU117      0.3649
     96  OE1        7.6860   49.0850   60.4610 O.co2 117  GLU117     -0.2457
     97  OE2        7.9410   51.1760   61.1160 O.co2 117  GLU117     -0.2457
     98  N         10.4410   46.9790   65.5200 N.am  118  ARG118     -0.1980
     99  CA        10.1220   46.2580   66.7430 C.3   118  ARG118      0.1597
    100  C         11.3010   46.3410   67.7060 C.2   118  ARG118      0.2287
    101  O         11.3770   45.5980   68.6880 O.2   118  ARG118     -0.2864
    102  CB         9.7630   44.8000   66.4410 C.3   118  ARG118      0.0334
    103  CG         9.2630   44.1250   67.7060 C.3   118  ARG118      0.0492
    104  CD         8.8510   42.7050   67.3950 C.3   118  ARG118      0.2205
    105  NE         9.9370   42.0190   66.7300 N.pl3 118  ARG118     -0.0865
    106  CZ         9.6690   41.2220   65.6990 C.cat 118  ARG118      0.5346
    107  NH1        8.4090   41.0610   65.2970 N.pl3 118  ARG118      0.1354
    108  NH2       10.6600   40.6090   65.0520 N.pl3 118  ARG118      0.1354
    109  N         15.7020   40.9670   67.7490 N.3   122  ILE122     -0.1245
    110  CA        16.4160   39.8340   67.1640 C.3   122  ILE122      0.1561
    111  C         17.4500   40.3470   66.1750 C.2   122  ILE122      0.2260
    112  O         17.0990   41.0420   65.2170 O.2   122  ILE122     -0.2867
    113  CB        15.4790   38.8980   66.3720 C.3   122  ILE122      0.0252
    114  CG1       14.1710   38.6390   67.1300 C.3   122  ILE122      0.0019
    115  CG2       16.2000   37.5960   66.0290 C.3   122  ILE122      0.0019
    116  CD1       13.1960   37.7360   66.3870 C.3   122  ILE122      0.0001
    117  N          1.7480   40.9920   53.4250 N.3   152  THR152     -0.1203
    118  CA         1.5550   41.6590   54.6980 C.3   152  THR152      0.1994
    119  C          1.6830   43.1780   54.6010 C.2   152  THR152      0.2618
    120  O          1.0410   43.9090   55.3600 O.2   152  THR152     -0.2717
    121  CB         2.5430   41.1050   55.7150 C.3   152  THR152      0.1784
    122  OG1        3.8510   41.0650   55.1210 O.3   152  THR152     -0.2211
    123  CG2        2.1230   39.6890   56.1070 C.3   152  THR152      0.0376
    124  N          2.5130   43.6460   53.6700 N.am  153  THR153     -0.1952
    125  CA         2.6150   45.0780   53.3780 C.3   153  THR153      0.1897
    126  C          1.2530   45.5930   52.9680 C.2   153  THR153      0.2313
    127  O          0.8180   46.6620   53.3900 O.2   153  THR153     -0.2863
    128  CB         3.5780   45.3720   52.2100 C.3   153  THR153      0.1794
    129  OG1        3.2360   44.5530   51.0860 O.3   153  THR153     -0.2208
    130  CG2        5.0240   45.1110   52.6030 C.3   153  THR153      0.0378
@<TRIPOS>BOND
     1   129   128    1
     2   128   130    1
     3   128   125    1
     4   126   125    1
     5   126   127    2
     6   125   124    1
     7   117   118    1
     8   124   119   am
     9   119   118    1
    10   119   120    2
    11   118   121    1
    12   122   121    1
    13   121   123    1
    14    88    86    1
    15     7     6    1
    16    26    24    1
    17     6     8    1
    18     6     5    1
    19    86    85    2
    20    86    87    1
    21    85    84    1
    22     1     2    1
    23    24    25    1
    24    24    21    1
    25     5     2    1
    26    23    22    2
    27     2     3    1
    28    84    83    1
    29    21    22    1
    30    21    20    1
    31    83    82    1
    32    22    27   am
    33    78    79    1
    34     4     3    2
    35     3     9   am
    36    20    18   am
    37    82    79    1
    38    19    18    2
    39    96    95   ar
    40    79    80    1
    41    27    28    1
    42    18    17    1
    43    12    11    2
    44    36    37    1
    45    36    35    1
    46     9    15    1
    47     9    10    1
    48    95    97   ar
    49    95    94    1
    50    28    29    1
    51    37    38    1
    52    15    14    1
    53    30    29    2
    54    29    31   am
    55    39    38    1
    56    11    16   am
    57    11    10    1
    58    17    16    1
    59    31    32    1
    60    94    93    1
    61    80    81    2
    62    32    35    1
    63    32    33    1
    64    10    13    1
    65    14    13    1
    66    34    33    2
    67    93    90    1
    68    33    40   am
    69    89    90    1
    70    48    49    2
    71    48    47    1
    72    52    50    1
    73    50    47    1
    74    50    51    1
    75    90    91    1
    76    40    41    1
    77    47    46    1
    78    46    42   am
    79    71    70    1
    80    71    72    1
    81    71    74    1
    82    72    73    2
    83   108   106    1
    84   112   111    2
    85    42    43    2
    86    42    41    1
    87    53    54    1
    88    55    56    2
    89    55    54    1
    90   107   106    1
    91    77    75   ar
    92    91    98   am
    93    91    92    2
    94    41    44    1
    95    98    99    1
    96   106   105    2
    97    75    74    1
    98    75    76   ar
    99   115   113    1
   100    54    57    1
   101   111   110    1
   102   113   114    1
   103   113   110    1
   104   116   114    1
   105   102    99    1
   106   102   103    1
   107    44    45    1
   108   105   104    1
   109    99   100    1
   110    57    58    1
   111   110   109    1
   112   104   103    1
   113   100   101    2
   114    59    58    1
   115    59    60    1
   116    61    60    1
   117    68    67   ar
   118    67    69   ar
   119    67    66    1
   120    62    63    1
   121    66    63    1
   122    63    64    1
   123    64    65    2
