@<TRIPOS>MOLECULE
tmp/3am6D01.pdb
 111 103 0 0 0
SMALL
GASTEIGER

@<TRIPOS>ATOM
      1  N        -13.7300   -3.9740  -27.0240 N.3    19  ILE19      -0.1245
      2  CA       -14.4400   -2.7610  -26.7070 C.3    19  ILE19       0.1561
      3  C        -13.5450   -1.8280  -25.8910 C.2    19  ILE19       0.2260
      4  O        -13.2360   -0.7210  -26.3210 O.2    19  ILE19      -0.2867
      5  CB       -15.7170   -3.1010  -25.9420 C.3    19  ILE19       0.0252
      6  CG1      -16.6040   -3.9580  -26.8450 C.3    19  ILE19       0.0019
      7  CG2      -16.4290   -1.8210  -25.4720 C.3    19  ILE19       0.0019
      8  CD1      -17.9450   -4.2530  -26.2620 C.3    19  ILE19       0.0001
      9  N        -10.6570   -0.3890  -27.8120 N.3    22  ALA22      -0.1231
     10  CA       -11.0790    0.6470  -28.7490 C.3    22  ALA22       0.1694
     11  C        -11.2700    1.9780  -28.0280 C.2    22  ALA22       0.2591
     12  O        -10.6460    2.9840  -28.3770 O.2    22  ALA22      -0.2718
     13  CB       -12.3720    0.2310  -29.4100 C.3    22  ALA22       0.0304
     14  N        -12.1480    1.9760  -27.0310 N.am   23  ALA23      -0.1980
     15  CA       -12.4130    3.1700  -26.2480 C.3    23  ALA23       0.1597
     16  C        -11.0710    3.7550  -25.8450 C.2    23  ALA23       0.2287
     17  O        -10.8280    4.9580  -25.9610 O.2    23  ALA23      -0.2864
     18  CB       -13.2130    2.8140  -25.0210 C.3    23  ALA23       0.0319
     19  N         -9.5120    5.1830  -28.8500 N.3    26  ALA26      -0.1231
     20  CA       -10.3560    6.3190  -29.2070 C.3    26  ALA26       0.1694
     21  C        -10.0380    7.5540  -28.3800 C.2    26  ALA26       0.2592
     22  O         -9.6290    8.5930  -28.9140 O.2    26  ALA26      -0.2718
     23  CB       -11.8120    5.9550  -29.0320 C.3    26  ALA26       0.0304
     24  N        -10.2390    7.4380  -27.0710 N.am   27  PHE27      -0.1976
     25  CA        -9.9750    8.5460  -26.1700 C.3    27  PHE27       0.1639
     26  C         -8.5100    8.8650  -26.2750 C.2    27  PHE27       0.2290
     27  O         -8.1180   10.0070  -26.4630 O.2    27  PHE27      -0.2864
     28  CB       -10.3180    8.1450  -24.7470 C.3    27  PHE27       0.0560
     29  CG       -11.7510    7.7260  -24.5650 C.ar   27  PHE27      -0.0200
     30  CD1      -12.1700    7.1570  -23.3730 C.ar   27  PHE27      -0.0042
     31  CD2      -12.6820    7.9010  -25.5740 C.ar   27  PHE27      -0.0042
     32  CE1      -13.4900    6.7710  -23.1910 C.ar   27  PHE27      -0.0003
     33  CE2      -14.0030    7.5170  -25.3990 C.ar   27  PHE27      -0.0003
     34  CZ       -14.4070    6.9500  -24.2050 C.ar   27  PHE27      -0.0000
     35  N         -8.1220   11.0560  -29.4510 N.3    30  ALA30      -0.1245
     36  CA        -8.9400   12.2410  -29.2560 C.3    30  ALA30       0.1562
     37  C         -8.2450   13.2980  -28.4110 C.2    30  ALA30       0.2260
     38  O         -7.9400   14.3870  -28.8870 O.2    30  ALA30      -0.2867
     39  CB       -10.2630   11.8500  -28.6110 C.3    30  ALA30       0.0290
     40  N         -7.7630   18.2960  -27.9680 N.3    34  ARG34      -0.1245
     41  CA        -8.6240   19.0360  -27.0630 C.3    34  ARG34       0.1563
     42  C         -7.7650   20.0440  -26.2920 C.2    34  ARG34       0.2260
     43  O         -6.5720   20.1750  -26.5550 O.2    34  ARG34      -0.2867
     44  CB        -9.3040   18.0590  -26.0940 C.3    34  ARG34       0.0307
     45  CG        -9.8420   16.7960  -26.7520 C.3    34  ARG34       0.0489
     46  CD       -10.6790   17.1460  -27.9580 C.3    34  ARG34       0.2205
     47  NE       -11.7770   18.0470  -27.6170 N.pl3  34  ARG34      -0.0865
     48  CZ       -12.3950   18.8320  -28.4960 C.cat  34  ARG34       0.5346
     49  NH1      -12.0220   18.8370  -29.7720 N.pl3  34  ARG34       0.1354
     50  NH2      -13.3930   19.6070  -28.1080 N.pl3  34  ARG34       0.1354
     51  N        -10.3310   13.4430  -20.2620 N.3    40  TYR40      -0.1241
     52  CA        -9.9890   12.4040  -21.2190 C.3    40  TYR40       0.1605
     53  C         -9.0630   11.3700  -20.5710 C.2    40  TYR40       0.2264
     54  O         -9.3530   10.1670  -20.5510 O.2    40  TYR40      -0.2867
     55  CB        -9.3390   13.0480  -22.4490 C.3    40  TYR40       0.0534
     56  CG       -10.3620   13.4980  -23.4700 C.ar   40  TYR40      -0.0201
     57  CD1      -10.8390   12.6130  -24.4390 C.ar   40  TYR40      -0.0009
     58  CD2      -10.9510   14.7560  -23.3890 C.ar   40  TYR40      -0.0009
     59  CE1      -11.8860   12.9650  -25.2860 C.ar   40  TYR40       0.0417
     60  CE2      -12.0020   15.1150  -24.2370 C.ar   40  TYR40       0.0417
     61  CZ       -12.4660   14.2150  -25.1740 C.ar   40  TYR40       0.1957
     62  OH       -13.5420   14.5390  -25.9680 O.3    40  TYR40      -0.2866
     63  N        -17.0360    2.3010  -20.6430 N.3   208  PRO208     -0.2116
     64  CA       -17.0650    3.0370  -21.9200 C.3   208  PRO208      0.1372
     65  C        -18.2140    4.0480  -22.0110 C.2   208  PRO208      0.2244
     66  O        -17.9930    5.2570  -22.1690 O.2   208  PRO208     -0.2868
     67  CB       -17.2170    1.9250  -22.9530 C.3   208  PRO208      0.0268
     68  CG       -16.5160    0.7810  -22.3070 C.3   208  PRO208      0.0207
     69  CD       -17.0190    0.8490  -20.8900 C.3   208  PRO208      0.0892
     70  N        -18.2180    8.1760  -22.1190 N.3   212  MET212     -0.1245
     71  CA       -18.7650    9.0640  -23.1390 C.3   212  MET212      0.1570
     72  C        -19.6320   10.1140  -22.4720 C.2   212  MET212      0.2261
     73  O        -19.4470   11.3210  -22.6690 O.2   212  MET212     -0.2867
     74  CB       -19.6220    8.2910  -24.1250 C.3   212  MET212      0.0387
     75  CG       -18.8520    7.3820  -25.0260 C.3   212  MET212      0.0595
     76  SD       -20.0020    6.4610  -26.0360 S.3   212  MET212     -0.1393
     77  CE       -19.9180    4.8320  -25.2590 C.3   212  MET212      0.0692
     78  N        -17.3660   12.6560  -20.8790 N.3   215  LEU215     -0.1231
     79  CA       -16.6750   13.4100  -21.9120 C.3   215  LEU215      0.1693
     80  C        -17.6310   14.3740  -22.6120 C.2   215  LEU215      0.2591
     81  O        -17.3340   15.5580  -22.7750 O.2   215  LEU215     -0.2718
     82  CB       -16.0380   12.4510  -22.9270 C.3   215  LEU215      0.0284
     83  CG       -14.7950   11.6920  -22.4490 C.3   215  LEU215      0.0019
     84  CD1      -14.2860   10.7480  -23.5220 C.3   215  LEU215      0.0001
     85  CD2      -13.7230   12.6990  -22.1030 C.3   215  LEU215      0.0001
     86  N        -18.7880   13.8740  -23.0210 N.am  216  ILE216     -0.1980
     87  CA       -19.7420   14.7320  -23.6870 C.3   216  ILE216      0.1595
     88  C        -20.0670   15.8860  -22.7770 C.2   216  ILE216      0.2287
     89  O        -19.7960   17.0350  -23.1070 O.2   216  ILE216     -0.2864
     90  CB       -21.0140   13.9870  -24.0000 C.3   216  ILE216      0.0276
     91  CG1      -20.7770   13.0940  -25.2060 C.3   216  ILE216      0.0022
     92  CG2      -22.1400   14.9610  -24.2330 C.3   216  ILE216      0.0022
     93  CD1      -21.9730   12.3180  -25.6130 C.3   216  ILE216      0.0001
     94  N        -17.3360   18.3330  -22.6150 N.3   219  GLU219     -0.1245
     95  CA       -17.2710   18.9900  -23.9140 C.3   219  GLU219      0.1567
     96  C        -18.4620   19.9250  -24.1110 C.2   219  GLU219      0.2260
     97  O        -18.3210   21.0400  -24.5980 O.2   219  GLU219     -0.2867
     98  CB       -17.2560   17.9370  -25.0190 C.3   219  GLU219      0.0388
     99  CG       -15.9560   17.1540  -25.1490 C.3   219  GLU219      0.1160
    100  CD       -14.8430   17.9670  -25.7950 C.2   219  GLU219      0.3649
    101  OE1      -15.1590   18.9600  -26.4820 O.co2 219  GLU219     -0.2457
    102  OE2      -13.6550   17.6070  -25.6310 O.co2 219  GLU219     -0.2457
    103  N        -18.5510   24.2870  -23.7820 N.3   223  LYS223     -0.1245
    104  CA       -19.0480   25.0810  -24.8940 C.3   223  LYS223      0.1561
    105  C        -20.0550   26.1030  -24.3670 C.2   223  LYS223      0.2260
    106  O        -20.8610   26.6370  -25.1290 O.2   223  LYS223     -0.2867
    107  CB       -19.7080   24.1640  -25.9390 C.3   223  LYS223      0.0271
    108  CG       -19.6720   24.6970  -27.3760 C.3   223  LYS223      0.0035
    109  CD       -20.4780   23.8060  -28.3310 C.3   223  LYS223      0.0206
    110  CE       -21.9790   23.8320  -28.0040 C.3   223  LYS223      0.1093
    111  NZ       -22.7990   22.9490  -28.8910 N.3   223  LYS223     -0.1314
@<TRIPOS>BOND
     1    49    48    1
     2    35    36    1
     3    13    10    1
     4    36    39    1
     5    36    37    1
     6    20    23    1
     7    20    19    1
     8    20    21    1
     9    22    21    2
    10   111   110    1
    11    38    37    2
    12    10    11    1
    13    10     9    1
    14    48    50    1
    15    48    47    2
    16    21    24   am
    17    12    11    2
    18   109   110    1
    19   109   108    1
    20    11    14   am
    21    40    41    1
    22    46    47    1
    23    46    45    1
    24   108   107    1
    25    24    25    1
    26    41    42    1
    27    41    44    1
    28    14    15    1
    29     1     2    1
    30     6     8    1
    31     6     5    1
    32    45    44    1
    33     2     5    1
    34     2     3    1
    35    43    42    2
    36   101   100   ar
    37    27    26    2
    38     4     3    2
    39    26    25    1
    40    15    16    1
    41    15    18    1
    42    25    28    1
    43    76    77    1
    44    76    75    1
    45    62    61    1
    46    17    16    2
    47     5     7    1
    48   107   104    1
    49   100   102   ar
    50   100    99    1
    51    93    91    1
    52    31    33   ar
    53    31    29   ar
    54    33    34   ar
    55    59    61   ar
    56    59    57   ar
    57    91    90    1
    58    61    60   ar
    59    99    98    1
    60   106   105    2
    61    75    74    1
    62    98    95    1
    63   104   105    1
    64   104   103    1
    65    28    29    1
    66    97    96    2
    67    29    30   ar
    68    57    56   ar
    69    60    58   ar
    70    92    90    1
    71    34    32   ar
    72    74    71    1
    73    96    95    1
    74    90    87    1
    75    95    94    1
    76    87    86    1
    77    87    88    1
    78    84    83    1
    79    56    58   ar
    80    56    55    1
    81    30    32   ar
    82    71    72    1
    83    71    70    1
    84    89    88    2
    85    86    80   am
    86    67    68    1
    87    67    64    1
    88    82    83    1
    89    82    79    1
    90    81    80    2
    91    73    72    2
    92    80    79    1
    93    55    52    1
    94    83    85    1
    95    68    69    1
    96    66    65    2
    97    65    64    1
    98    64    63    1
    99    79    78    1
   100    52    53    1
   101    52    51    1
   102    69    63    1
   103    53    54    2
