@<TRIPOS>MOLECULE
tmp/3am6D00.pdb
 167 163 0 0 0
SMALL
GASTEIGER

@<TRIPOS>ATOM
      1  N        -11.3010   -7.9970   -9.6080 N.3    77  TYR77      -0.1241
      2  CA       -11.2450   -7.1790   -8.4060 C.3    77  TYR77       0.1605
      3  C        -10.1580   -6.1450   -8.5480 C.2    77  TYR77       0.2264
      4  O        -10.3180   -4.9980   -8.1510 O.2    77  TYR77      -0.2867
      5  CB       -11.0180   -8.0770   -7.2000 C.3    77  TYR77       0.0534
      6  CG       -12.1690   -9.0380   -7.0470 C.ar   77  TYR77      -0.0201
      7  CD1      -13.4590   -8.5620   -6.8350 C.ar   77  TYR77      -0.0009
      8  CD2      -11.9970  -10.4120   -7.2080 C.ar   77  TYR77      -0.0009
      9  CE1      -14.5470   -9.4220   -6.7960 C.ar   77  TYR77       0.0417
     10  CE2      -13.0870  -11.2830   -7.1710 C.ar   77  TYR77       0.0417
     11  CZ       -14.3540  -10.7760   -6.9680 C.ar   77  TYR77       0.1957
     12  OH       -15.4390  -11.6100   -6.9600 O.3    77  TYR77      -0.2866
     13  N        -11.4940   -3.4420  -10.8810 N.3    80  TRP80      -0.1241
     14  CA       -12.4220   -2.6950  -10.0450 C.3    80  TRP80       0.1605
     15  C        -11.7610   -1.7970   -9.0220 C.2    80  TRP80       0.2264
     16  O        -12.1230   -0.6290   -8.9000 O.2    80  TRP80      -0.2867
     17  CB       -13.3670   -3.6550   -9.3210 C.3    80  TRP80       0.0550
     18  CG       -14.1660   -4.4940  -10.2410 C.ar   80  TRP80       0.0003
     19  CD1      -14.1600   -4.4520  -11.6050 C.ar   80  TRP80       0.0946
     20  CD2      -15.1140   -5.4920   -9.8770 C.ar   80  TRP80       0.0152
     21  NE1      -15.0500   -5.3620  -12.1130 N.ar   80  TRP80      -0.2442
     22  CE2      -15.6500   -6.0150  -11.0690 C.ar   80  TRP80       0.0810
     23  CE3      -15.5660   -5.9960   -8.6590 C.ar   80  TRP80       0.0012
     24  CZ2      -16.6150   -7.0190  -11.0740 C.ar   80  TRP80       0.0191
     25  CZ3      -16.5270   -6.9950   -8.6670 C.ar   80  TRP80       0.0001
     26  CH2      -17.0390   -7.4930   -9.8660 C.ar   80  TRP80       0.0015
     27  N        -10.2560    0.9600  -11.1490 N.3    83  THR83      -0.1203
     28  CA       -11.1960    1.7000  -11.9570 C.3    83  THR83       0.1994
     29  C        -12.2750    2.4320  -11.1760 C.2    83  THR83       0.2618
     30  O        -12.4800    3.6210  -11.3820 O.2    83  THR83      -0.2717
     31  CB       -11.8220    0.7580  -12.9940 C.3    83  THR83       0.1784
     32  OG1      -12.3570   -0.3940  -12.3280 O.3    83  THR83      -0.2211
     33  CG2      -10.7560    0.3060  -13.9950 C.3    83  THR83       0.0376
     34  N        -12.9520    1.7280  -10.2730 N.am   84  THR84      -0.1952
     35  CA       -14.0230    2.3260   -9.4790 C.3    84  THR84       0.1897
     36  C        -13.6180    3.6710   -8.8810 C.2    84  THR84       0.2313
     37  O        -14.3600    4.6420   -8.9720 O.2    84  THR84      -0.2863
     38  CB       -14.4840    1.3750   -8.3700 C.3    84  THR84       0.1794
     39  OG1      -13.3720    1.0310   -7.5430 O.3    84  THR84      -0.2208
     40  CG2      -15.0390    0.1040   -8.9700 C.3    84  THR84       0.0378
     41  N        -13.7380    6.1780  -11.4510 N.3    87  LEU87      -0.1245
     42  CA       -15.0800    6.4430  -11.9440 C.3    87  LEU87       0.1561
     43  C        -15.7770    7.4810  -11.0850 C.2    87  LEU87       0.2260
     44  O        -16.4790    8.3550  -11.6010 O.2    87  LEU87      -0.2867
     45  CB       -15.8890    5.1530  -11.9740 C.3    87  LEU87       0.0270
     46  CG       -15.4440    4.2030  -13.0850 C.3    87  LEU87       0.0019
     47  CD1      -15.9850    2.8070  -12.8150 C.3    87  LEU87       0.0001
     48  CD2      -15.9130    4.7520  -14.4440 C.3    87  LEU87       0.0001
     49  N        -14.7040   -1.3790   -0.1930 N.3   112  MET112     -0.1230
     50  CA       -15.8350   -2.0790   -0.7680 C.3   112  MET112      0.1702
     51  C        -15.2750   -3.1910   -1.6330 C.2   112  MET112      0.2592
     52  O        -15.6610   -4.3510   -1.5110 O.2   112  MET112     -0.2718
     53  CB       -16.6760   -1.1390   -1.6220 C.3   112  MET112      0.0401
     54  CG       -17.8370   -1.8250   -2.3290 C.3   112  MET112      0.0596
     55  SD       -18.8180   -0.6670   -3.2840 S.3   112  MET112     -0.1393
     56  CE       -17.6450   -0.2680   -4.6260 C.3   112  MET112      0.0692
     57  N        -14.3390   -2.8410   -2.4950 N.am  113  ILE113     -0.1980
     58  CA       -13.7590   -3.8470   -3.3440 C.3   113  ILE113      0.1595
     59  C        -13.0560   -4.9290   -2.5450 C.2   113  ILE113      0.2287
     60  O        -13.4270   -6.1000   -2.6150 O.2   113  ILE113     -0.2864
     61  CB       -12.7690   -3.2380   -4.3090 C.3   113  ILE113      0.0276
     62  CG1      -13.5010   -2.2790   -5.2490 C.3   113  ILE113      0.0022
     63  CG2      -12.0790   -4.3440   -5.1040 C.3   113  ILE113      0.0022
     64  CD1      -14.4940   -2.9540   -6.1780 C.3   113  ILE113      0.0001
     65  N        -15.0100   -7.4730   -0.9980 N.3   116  GLY116     -0.1225
     66  CA       -15.4620   -8.3890   -2.0220 C.3   116  GLY116      0.1811
     67  C        -14.4040   -9.4350   -2.2660 C.2   116  GLY116      0.2280
     68  O        -14.6820  -10.6320   -2.2580 O.2   116  GLY116     -0.2866
     69  N        -19.4210   -9.7730    2.6480 N.3   132  PHE132     -0.1241
     70  CA       -20.3420   -9.2430    1.6780 C.3   132  PHE132      0.1605
     71  C        -21.0570   -8.0420    2.2560 C.2   132  PHE132      0.2264
     72  O        -21.1330   -6.9870    1.6270 O.2   132  PHE132     -0.2867
     73  CB       -21.3640  -10.2880    1.2870 C.3   132  PHE132      0.0534
     74  CG       -22.2640   -9.8400    0.1890 C.ar  132  PHE132     -0.0203
     75  CD1      -21.7680   -9.6740   -1.1030 C.ar  132  PHE132     -0.0042
     76  CD2      -23.5940   -9.5440    0.4490 C.ar  132  PHE132     -0.0042
     77  CE1      -22.5780   -9.2190   -2.1260 C.ar  132  PHE132     -0.0003
     78  CE2      -24.4200   -9.0870   -0.5590 C.ar  132  PHE132     -0.0003
     79  CZ       -23.9130   -8.9200   -1.8610 C.ar  132  PHE132     -0.0000
     80  N        -18.8250   -4.7010    2.4120 N.3   135  GLY135     -0.1210
     81  CA       -18.7870   -3.9650    1.1650 C.3   135  GLY135      0.1956
     82  C        -20.0690   -3.2060    0.8970 C.2   135  GLY135      0.2612
     83  O        -20.0360   -2.0090    0.6050 O.2   135  GLY135     -0.2717
     84  N        -21.2030   -3.8950    0.9860 N.am  136  CYS136     -0.1970
     85  CA       -22.4840   -3.2440    0.7470 C.3   136  CYS136      0.1712
     86  C        -22.5250   -1.9940    1.6090 C.2   136  CYS136      0.2296
     87  O        -22.8770   -0.9130    1.1510 O.2   136  CYS136     -0.2864
     88  CB       -23.6440   -4.1670    1.1340 C.3   136  CYS136      0.0983
     89  SG       -23.8240   -5.6770    0.1430 S.3   136  CYS136     -0.0798
     90  N        -20.4150    0.4640   -0.0700 N.3   139  GLN139     -0.1245
     91  CA       -21.0860    1.0170   -1.2330 C.3   139  GLN139      0.1566
     92  C        -22.1200    2.0040   -0.7050 C.2   139  GLN139      0.2260
     93  O        -22.3350    3.0710   -1.2700 O.2   139  GLN139     -0.2867
     94  CB       -21.7550   -0.0980   -2.0470 C.3   139  GLN139      0.0367
     95  CG       -22.8480    0.3910   -2.9940 C.3   139  GLN139      0.0905
     96  CD       -23.0430   -0.5200   -4.1910 C.2   139  GLN139      0.2608
     97  OE1      -22.8090   -1.7290   -4.1050 O.2   139  GLN139     -0.2717
     98  NE2      -23.4810    0.0550   -5.3160 N.am  139  GLN139     -0.0878
     99  N        -24.3910    0.3030  -10.3740 N.3   174  TRP174     -0.1241
    100  CA       -23.4900   -0.3590   -9.4370 C.3   174  TRP174      0.1605
    101  C        -24.0950   -1.4170   -8.5220 C.2   174  TRP174      0.2264
    102  O        -23.5090   -2.4890   -8.3450 O.2   174  TRP174     -0.2867
    103  CB       -22.7660    0.6890   -8.6050 C.3   174  TRP174      0.0550
    104  CG       -21.6570    1.3090   -9.3590 C.ar  174  TRP174      0.0003
    105  CD1      -21.6090    1.5150  -10.6970 C.ar  174  TRP174      0.0946
    106  CD2      -20.4350    1.8360   -8.8230 C.ar  174  TRP174      0.0152
    107  NE1      -20.4350    2.1400  -11.0410 N.ar  174  TRP174     -0.2442
    108  CE2      -19.6930    2.3510   -9.9100 C.ar  174  TRP174      0.0810
    109  CE3      -19.8950    1.9250   -7.5320 C.ar  174  TRP174      0.0012
    110  CZ2      -18.4290    2.9510   -9.7470 C.ar  174  TRP174      0.0191
    111  CZ3      -18.6350    2.5230   -7.3670 C.ar  174  TRP174      0.0001
    112  CH2      -17.9200    3.0270   -8.4720 C.ar  174  TRP174      0.0015
    113  N        -23.7270   -5.0230   -9.5010 N.3   177  TYR177     -0.1228
    114  CA       -22.5320   -5.8200   -9.3030 C.3   177  TYR177      0.1721
    115  C        -22.7050   -6.7460   -8.1190 C.2   177  TYR177      0.2437
    116  O        -22.6700   -7.9700   -8.2720 O.2   177  TYR177     -0.2733
    117  CB       -21.3300   -4.9270   -9.0590 C.3   177  TYR177      0.0547
    118  CG       -20.7460   -4.4100  -10.3340 C.ar  177  TYR177     -0.0200
    119  CD1      -21.2170   -3.2360  -10.9180 C.ar  177  TYR177     -0.0009
    120  CD2      -19.7360   -5.1190  -10.9820 C.ar  177  TYR177     -0.0009
    121  CE1      -20.6870   -2.7810  -12.1200 C.ar  177  TYR177      0.0417
    122  CE2      -19.2050   -4.6770  -12.1820 C.ar  177  TYR177      0.0417
    123  CZ       -19.6820   -3.5100  -12.7450 C.ar  177  TYR177      0.1957
    124  OH       -19.1380   -3.0720  -13.9260 O.3   177  TYR177     -0.2866
    125  N        -22.9200   -6.1680   -6.9210 N.am  178  PRO178     -0.2729
    126  CA       -23.0990   -6.9580   -5.7010 C.3   178  PRO178      0.1401
    127  C        -24.1710   -8.0160   -5.8700 C.2   178  PRO178      0.2269
    128  O        -24.0540   -9.1230   -5.3430 O.2   178  PRO178     -0.2865
    129  CB       -23.4730   -5.9060   -4.6590 C.3   178  PRO178      0.0296
    130  CG       -24.1990   -4.9000   -5.4620 C.3   178  PRO178      0.0237
    131  CD       -23.3260   -4.7730   -6.6830 C.3   178  PRO178      0.0939
    132  N        -22.6840  -10.6950   -8.0410 N.3   181  TRP181     -0.1241
    133  CA       -21.6760  -11.3320   -7.2180 C.3   181  TRP181      0.1605
    134  C        -22.3940  -12.3040   -6.3030 C.2   181  TRP181      0.2264
    135  O        -22.2740  -13.5250   -6.4420 O.2   181  TRP181     -0.2867
    136  CB       -20.9400  -10.2890   -6.3800 C.3   181  TRP181      0.0550
    137  CG       -19.7030  -10.7980   -5.6860 C.ar  181  TRP181      0.0003
    138  CD1      -18.4160  -10.7390   -6.1440 C.ar  181  TRP181      0.0946
    139  CD2      -19.6450  -11.4130   -4.4010 C.ar  181  TRP181      0.0152
    140  NE1      -17.5610  -11.2730   -5.2170 N.ar  181  TRP181     -0.2442
    141  CE2      -18.2860  -11.6980   -4.1370 C.ar  181  TRP181      0.0810
    142  CE3      -20.6090  -11.7530   -3.4440 C.ar  181  TRP181      0.0012
    143  CZ2      -17.8650  -12.3100   -2.9500 C.ar  181  TRP181      0.0191
    144  CZ3      -20.1940  -12.3580   -2.2690 C.ar  181  TRP181      0.0001
    145  CH2      -18.8300  -12.6310   -2.0310 C.ar  181  TRP181      0.0015
    146  N        -19.7280   -3.9780  -16.7890 N.3   203  ASP203     -0.1239
    147  CA       -18.4940   -3.2410  -17.0430 C.3   203  ASP203      0.1674
    148  C        -18.6190   -2.2840  -18.2340 C.2   203  ASP203      0.2266
    149  O        -18.3340   -1.0850  -18.1060 O.2   203  ASP203     -0.2867
    150  CB       -17.3280   -4.2250  -17.2520 C.3   203  ASP203      0.1410
    151  CG       -16.6390   -4.6130  -15.9370 C.2   203  ASP203      0.3668
    152  OD1      -17.3400   -4.9440  -14.9530 O.co2 203  ASP203     -0.2456
    153  OD2      -15.3870   -4.5910  -15.8840 O.co2 203  ASP203     -0.2456
    154  N        -20.8470    0.5290  -17.3370 N.3   206  ALA206     -0.1231
    155  CA       -20.1900    1.3210  -16.3210 C.3   206  ALA206      0.1694
    156  C        -18.9660    2.0990  -16.7680 C.2   206  ALA206      0.2591
    157  O        -18.7260    3.1980  -16.2640 O.2   206  ALA206     -0.2718
    158  CB       -19.8260    0.4240  -15.1550 C.3   206  ALA206      0.0304
    159  N        -18.1980    1.5450  -17.7070 N.am  207  LYS207     -0.1980
    160  CA       -16.9730    2.2020  -18.1590 C.3   207  LYS207      0.1596
    161  C        -17.0010    2.9870  -19.4830 C.2   207  LYS207      0.2287
    162  O        -16.9820    4.2230  -19.4660 O.2   207  LYS207     -0.2864
    163  CB       -15.8330    1.1830  -18.1570 C.3   207  LYS207      0.0298
    164  CG       -15.4440    0.7200  -16.7570 C.3   207  LYS207      0.0038
    165  CD       -14.4740   -0.4480  -16.8070 C.3   207  LYS207      0.0206
    166  CE       -13.7740   -0.6750  -15.4740 C.3   207  LYS207      0.1093
    167  NZ       -14.5240   -1.4970  -14.5250 N.3   207  LYS207     -0.1314
@<TRIPOS>BOND
     1   161   162    2
     2   161   160    1
     3   148   149    2
     4   148   147    1
     5   160   163    1
     6   160   159    1
     7   163   164    1
     8   159   156   am
     9   154   155    1
    10   150   147    1
    11   150   151    1
    12   147   146    1
    13   165   164    1
    14   165   166    1
    15   156   155    1
    16   156   157    2
    17   155   158    1
    18   151   153   ar
    19   151   152   ar
    20   166   167    1
    21    48    46    1
    22    33    31    1
    23   124   123    1
    24    46    47    1
    25    46    45    1
    26    31    32    1
    27    31    28    1
    28   123   122   ar
    29   123   121   ar
    30   122   120   ar
    31   121   119   ar
    32    21    19   ar
    33    21    22   ar
    34    45    42    1
    35    28    29    1
    36    28    27    1
    37    42    41    1
    38    42    43    1
    39    19    18   ar
    40    44    43    2
    41    30    29    2
    42    29    34   am
    43    24    22   ar
    44    24    26   ar
    45    22    20   ar
    46   107   105   ar
    47   107   108   ar
    48   120   118   ar
    49   119   118   ar
    50    13    14    1
    51   105   104   ar
    52    99   100    1
    53   118   117    1
    54    34    35    1
    55    18    20   ar
    56    18    17    1
    57    14    17    1
    58    14    15    1
    59   108   110   ar
    60   108   106   ar
    61    20    23   ar
    62    26    25   ar
    63   110   112   ar
    64     1     2    1
    65   113   114    1
    66    35    36    1
    67    35    38    1
    68   100   103    1
    69   100   101    1
    70   104   106   ar
    71   104   103    1
    72   114   117    1
    73   114   115    1
    74    15    16    2
    75    37    36    2
    76    40    38    1
    77   106   109   ar
    78    25    23   ar
    79     3     2    1
    80     3     4    2
    81   101   102    2
    82   112   111   ar
    83     2     5    1
    84    38    39    1
    85   116   115    2
    86   115   125   am
    87   132   133    1
    88   109   111   ar
    89   133   136    1
    90   133   134    1
    91     8    10   ar
    92     8     6   ar
    93     5     6    1
    94    10    11   ar
    95     6     7   ar
    96    11    12    1
    97    11     9   ar
    98   125   131    1
    99   125   126    1
   100     7     9   ar
   101   131   130    1
   102   135   134    2
   103   136   137    1
   104    64    62    1
   105   138   137   ar
   106   138   140   ar
   107   127   126    1
   108   127   128    2
   109   126   129    1
   110   137   139   ar
   111   130   129    1
   112    98    96   am
   113    62    61    1
   114   140   141   ar
   115    63    61    1
   116    56    55    1
   117   139   141   ar
   118   139   142   ar
   119    61    58    1
   120    96    97    2
   121    96    95    1
   122   141   143   ar
   123   142   144   ar
   124    58    59    1
   125    58    57    1
   126    55    54    1
   127    95    94    1
   128   143   145   ar
   129    60    59    2
   130    57    51   am
   131    54    53    1
   132   144   145   ar
   133    67    68    2
   134    67    66    1
   135    77    79   ar
   136    77    75   ar
   137    94    91    1
   138    66    65    1
   139    79    78   ar
   140    51    52    2
   141    51    50    1
   142    53    50    1
   143    93    92    2
   144    91    92    1
   145    91    90    1
   146    75    74   ar
   147    50    49    1
   148    78    76   ar
   149    89    88    1
   150    74    76   ar
   151    74    73    1
   152    83    82    2
   153    85    84    1
   154    85    88    1
   155    85    86    1
   156    82    84   am
   157    82    81    1
   158    87    86    2
   159    81    80    1
   160    73    70    1
   161    72    71    2
   162    70    71    1
   163    70    69    1
