@<TRIPOS>MOLECULE
tmp/3amaA00.pdb
 167 160 0 0 0
SMALL
GASTEIGER

@<TRIPOS>ATOM
      1  N        -27.6170   15.5920    8.5930 N.3    48  LEU48      -0.1231
      2  CA       -27.8490   14.1600    8.8110 C.3    48  LEU48       0.1693
      3  C        -26.5980   13.3510    8.5680 C.2    48  LEU48       0.2593
      4  O        -26.4530   12.2340    9.0890 O.2    48  LEU48      -0.2718
      5  CB       -28.9360   13.6460    7.8650 C.3    48  LEU48       0.0284
      6  CG       -30.3710   14.1420    8.0710 C.3    48  LEU48       0.0019
      7  CD1      -31.2510   13.6550    6.9140 C.3    48  LEU48       0.0001
      8  CD2      -30.9320   13.6850    9.4060 C.3    48  LEU48       0.0001
      9  N        -25.7120   13.9020    7.7430 N.am   49  GLY49      -0.1942
     10  CA       -24.4840   13.2270    7.3540 C.3    49  GLY49       0.2014
     11  C        -23.6540   14.0800    6.4110 C.2    49  GLY49       0.2639
     12  O        -24.0540   15.1790    6.0150 O.2    49  GLY49      -0.2714
     13  N        -22.4700   13.5900    6.0680 N.am   50  THR50      -0.1950
     14  CA       -21.6130   14.3180    5.1360 C.3    50  THR50       0.1897
     15  C        -21.1310   13.3770    4.0380 C.2    50  THR50       0.2313
     16  O        -20.9600   12.1730    4.2600 O.2    50  THR50      -0.2863
     17  CB       -20.4060   15.0020    5.8410 C.3    50  THR50       0.1794
     18  OG1      -19.6970   14.0370    6.6240 O.3    50  THR50      -0.2208
     19  CG2      -20.8570   16.1350    6.7470 C.3    50  THR50       0.0378
     20  N        -25.5060   16.3430    3.8590 N.3    56  VAL56      -0.1245
     21  CA       -26.8810   15.9340    3.5640 C.3    56  VAL56       0.1561
     22  C        -27.7000   16.4640    4.7410 C.2    56  VAL56       0.2260
     23  O        -27.3920   16.1610    5.8900 O.2    56  VAL56      -0.2867
     24  CB       -27.0470   14.4040    3.4520 C.3    56  VAL56       0.0252
     25  CG1      -28.4810   14.0550    3.0260 C.3    56  VAL56       0.0019
     26  CG2      -26.0180   13.8020    2.4750 C.3    56  VAL56       0.0019
     27  N        -34.4510   14.5460    2.8570 N.3    69  ALA69      -0.1245
     28  CA       -32.9950   14.6530    3.0490 C.3    69  ALA69       0.1562
     29  C        -32.4110   15.3220    1.8190 C.2    69  ALA69       0.2260
     30  O        -32.5290   14.7900    0.7170 O.2    69  ALA69      -0.2867
     31  CB       -32.3510   13.2690    3.2440 C.3    69  ALA69       0.0290
     32  N        -34.4800    4.7620   -2.7020 N.3   103  VAL103     -0.1245
     33  CA       -34.7800    6.1240   -2.2300 C.3   103  VAL103      0.1561
     34  C        -35.2180    6.9730   -3.4250 C.2   103  VAL103      0.2260
     35  O        -34.5400    6.9790   -4.4600 O.2   103  VAL103     -0.2867
     36  CB       -33.5230    6.7600   -1.5740 C.3   103  VAL103      0.0252
     37  CG1      -33.6460    8.2920   -1.4380 C.3   103  VAL103      0.0019
     38  CG2      -33.2240    6.1010   -0.2290 C.3   103  VAL103      0.0019
     39  N        -34.0920   14.1770   -1.4180 N.3   119  LEU119     -0.1231
     40  CA       -34.3850   12.7580   -1.3540 C.3   119  LEU119      0.1693
     41  C        -35.4750   12.4360   -0.3560 C.2   119  LEU119      0.2592
     42  O        -35.6180   13.1050    0.6600 O.2   119  LEU119     -0.2718
     43  CB       -33.1100   12.0010   -0.9560 C.3   119  LEU119      0.0284
     44  CG       -31.8640   12.3290   -1.7800 C.3   119  LEU119      0.0019
     45  CD1      -30.6150   11.8310   -1.0670 C.3   119  LEU119      0.0001
     46  CD2      -31.9990   11.7040   -3.1540 C.3   119  LEU119      0.0001
     47  N        -36.2400   11.4000   -0.6710 N.am  120  GLU120     -0.1966
     48  CA       -37.1530   10.7640    0.2680 C.3   120  GLU120      0.1733
     49  C        -36.4280   10.5210    1.5980 C.2   120  GLU120      0.2616
     50  O        -35.3380    9.9580    1.6140 O.2   120  GLU120     -0.2715
     51  CB       -37.5930    9.4240   -0.3420 C.3   120  GLU120      0.0429
     52  CG       -38.4960    8.5800    0.5220 C.3   120  GLU120      0.1163
     53  CD       -38.9410    7.3170   -0.1910 C.2   120  GLU120      0.3649
     54  OE1      -38.3020    6.9160   -1.1900 O.co2 120  GLU120     -0.2457
     55  OE2      -39.9460    6.7330    0.2460 O.co2 120  GLU120     -0.2457
     56  N        -37.0330   10.9580    2.6990 N.am  121  TYR121     -0.1960
     57  CA       -36.4070   10.8330    4.0200 C.3   121  TYR121      0.1771
     58  C        -36.7520    9.5080    4.6910 C.2   121  TYR121      0.2619
     59  O        -37.9270    9.1390    4.7830 O.2   121  TYR121     -0.2715
     60  CB       -36.8280   11.9930    4.9150 C.3   121  TYR121      0.0574
     61  CG       -36.3940   11.8620    6.3640 C.ar  121  TYR121     -0.0198
     62  CD1      -35.0620   12.0540    6.7320 C.ar  121  TYR121     -0.0009
     63  CD2      -37.3210   11.5630    7.3640 C.ar  121  TYR121     -0.0009
     64  CE1      -34.6600   11.9500    8.0610 C.ar  121  TYR121      0.0417
     65  CE2      -36.9280   11.4560    8.7070 C.ar  121  TYR121      0.0417
     66  CZ       -35.5950   11.6500    9.0360 C.ar  121  TYR121      0.1957
     67  OH       -35.1920   11.5410   10.3450 O.3   121  TYR121     -0.2866
     68  N        -35.7240    8.8100    5.1660 N.am  122  ALA122     -0.1964
     69  CA       -35.9110    7.5690    5.9160 C.3   122  ALA122      0.1713
     70  C        -35.7030    7.8240    7.3970 C.2   122  ALA122      0.2458
     71  O        -34.5900    8.1740    7.8260 O.2   122  ALA122     -0.2730
     72  CB       -34.9520    6.4990    5.4080 C.3   122  ALA122      0.0333
     73  N        -36.7700    7.6550    8.2060 N.am  123  PRO123     -0.2716
     74  CA       -36.6190    8.0310    9.6130 C.3   123  PRO123      0.1536
     75  C        -35.7160    7.0970   10.4230 C.2   123  PRO123      0.2599
     76  O        -35.1890    7.5090   11.4520 O.2   123  PRO123     -0.2715
     77  CB       -38.0610    8.0270   10.1570 C.3   123  PRO123      0.0310
     78  CG       -38.8570    7.2460    9.1880 C.3   123  PRO123      0.0237
     79  CD       -38.1540    7.2740    7.8590 C.3   123  PRO123      0.0939
     80  N        -35.5230    5.8670    9.9540 N.am  124  GLY124     -0.1941
     81  CA       -34.6840    4.9030   10.6750 C.3   124  GLY124      0.2014
     82  C        -33.1780    5.0740   10.5210 C.2   124  GLY124      0.2639
     83  O        -32.4030    4.3450   11.1550 O.2   124  GLY124     -0.2714
     84  N        -32.7540    6.0350    9.6980 N.am  125  GLY125     -0.1939
     85  CA       -31.3250    6.2760    9.4660 C.3   125  GLY125      0.2014
     86  C        -30.6790    5.1490    8.6740 C.2   125  GLY125      0.2638
     87  O        -31.3730    4.4200    7.9560 O.2   125  GLY125     -0.2714
     88  N        -29.3590    5.0030    8.8070 N.am  126  GLU126     -0.1977
     89  CA       -28.5860    4.0310    8.0100 C.3   126  GLU126      0.1602
     90  C        -28.5340    2.6740    8.6920 C.2   126  GLU126      0.2287
     91  O        -28.4010    2.5950    9.9180 O.2   126  GLU126     -0.2864
     92  CB       -27.1450    4.5110    7.7870 C.3   126  GLU126      0.0415
     93  CG       -27.0150    5.9670    7.3070 C.3   126  GLU126      0.1163
     94  CD       -25.8590    6.6910    7.9760 C.2   126  GLU126      0.3649
     95  OE1      -24.6900    6.3870    7.6420 O.co2 126  GLU126     -0.2457
     96  OE2      -26.1190    7.5570    8.8410 O.co2 126  GLU126     -0.2457
     97  N        -25.5060    2.2210   11.1150 N.3   129  SER129     -0.1217
     98  CA       -25.6000    2.6240   12.5180 C.3   129  SER129      0.1889
     99  C        -26.1550    1.4950   13.3880 C.2   129  SER129      0.2288
    100  O        -25.6130    1.1780   14.4580 O.2   129  SER129     -0.2866
    101  CB       -26.4750    3.8850   12.6580 C.3   129  SER129      0.2089
    102  OG       -25.9110    4.9820   11.9370 O.3   129  SER129     -0.2183
    103  N        -23.7180    1.5190    4.8070 N.3   169  GLU169     -0.1231
    104  CA       -23.7200    2.9810    4.8430 C.3   169  GLU169      0.1699
    105  C        -24.7440    3.5680    3.8710 C.2   169  GLU169      0.2592
    106  O        -25.2400    4.6750    4.0750 O.2   169  GLU169     -0.2718
    107  CB       -22.3280    3.5260    4.4910 C.3   169  GLU169      0.0402
    108  CG       -21.2670    3.3260    5.5830 C.3   169  GLU169      0.1161
    109  CD       -20.4660    2.0220    5.4290 C.2   169  GLU169      0.3649
    110  OE1      -21.0500    0.9780    5.0460 O.co2 169  GLU169     -0.2457
    111  OE2      -19.2540    2.0400    5.7390 O.co2 169  GLU169     -0.2457
    112  N        -25.0440    2.8170    2.8220 N.am  170  ASN170     -0.1974
    113  CA       -25.9140    3.2980    1.7430 C.3   170  ASN170      0.1688
    114  C        -27.3180    2.7130    1.7780 C.2   170  ASN170      0.2292
    115  O        -28.0980    2.9180    0.8380 O.2   170  ASN170     -0.2864
    116  CB       -25.2610    3.0160    0.3850 C.3   170  ASN170      0.1181
    117  CG       -24.0980    3.9560    0.0850 C.2   170  ASN170      0.2629
    118  OD1      -23.8720    4.9420    0.7930 O.2   170  ASN170     -0.2716
    119  ND2      -23.3580    3.6540   -0.9700 N.am  170  ASN170     -0.0877
    120  N        -30.8110    2.5900    3.8900 N.3   172  LEU172     -0.1245
    121  CA       -31.6000    3.2470    4.9290 C.3   172  LEU172      0.1561
    122  C        -32.7380    2.3340    5.3930 C.2   172  LEU172      0.2260
    123  O        -33.1670    1.4430    4.6560 O.2   172  LEU172     -0.2867
    124  CB       -32.1460    4.5730    4.4020 C.3   172  LEU172      0.0270
    125  CG       -31.0890    5.5190    3.8090 C.3   172  LEU172      0.0019
    126  CD1      -31.7660    6.7250    3.2170 C.3   172  LEU172      0.0001
    127  CD2      -30.0300    5.9590    4.8450 C.3   172  LEU172      0.0001
    128  N        -29.7840    4.0840   -0.9540 N.3   182  ALA182     -0.1231
    129  CA       -29.4570    5.4660   -1.1320 C.3   182  ALA182      0.1694
    130  C        -28.1160    5.5200   -1.8590 C.2   182  ALA182      0.2592
    131  O        -27.3620    4.5500   -1.9090 O.2   182  ALA182     -0.2718
    132  CB       -29.3550    6.1620    0.2260 C.3   182  ALA182      0.0304
    133  N        -27.8490    6.6760   -2.4220 N.am  183  ASP183     -0.1974
    134  CA       -26.5830    7.0270   -3.0410 C.3   183  ASP183      0.1709
    135  C        -26.3220    6.3360   -4.3590 C.2   183  ASP183      0.2293
    136  O        -25.7990    5.2100   -4.4080 O.2   183  ASP183     -0.2864
    137  CB       -25.3870    6.8790   -2.0850 C.3   183  ASP183      0.1436
    138  CG       -24.2590    7.8280   -2.4440 C.2   183  ASP183      0.3671
    139  OD1      -24.0790    8.1210   -3.6510 O.co2 183  ASP183     -0.2456
    140  OD2      -23.5650    8.3070   -1.5170 O.co2 183  ASP183     -0.2456
    141  N        -32.2440   11.4770   19.3140 N.3   319  ASN319     -0.1225
    142  CA       -31.4520   10.2790   19.0460 C.3   319  ASN319      0.1785
    143  C        -30.5610   10.4200   17.8050 C.2   319  ASN319      0.2597
    144  O        -29.8340    9.4900   17.4430 O.2   319  ASN319     -0.2718
    145  CB       -32.3650    9.0430   18.9380 C.3   319  ASN319      0.1169
    146  CG       -33.6530    9.3170   18.1570 C.2   319  ASN319      0.2627
    147  OD1      -34.2690   10.3800   18.2870 O.2   319  ASN319     -0.2716
    148  ND2      -34.0730    8.3440   17.3550 N.am  319  ASN319     -0.0877
    149  N        -30.6220   11.5940   17.1750 N.am  320  PHE320     -0.1962
    150  CA       -29.8370   11.9150   15.9810 C.3   320  PHE320      0.1771
    151  C        -28.3750   12.1900   16.3270 C.2   320  PHE320      0.2619
    152  O        -28.0710   12.7080   17.4060 O.2   320  PHE320     -0.2715
    153  CB       -30.4070   13.1640   15.2980 C.3   320  PHE320      0.0574
    154  CG       -31.6900   12.9300   14.5450 C.ar  320  PHE320     -0.0200
    155  CD1      -31.7250   13.0660   13.1590 C.ar  320  PHE320     -0.0042
    156  CD2      -32.8680   12.5980   15.2170 C.ar  320  PHE320     -0.0042
    157  CE1      -32.9120   12.8610   12.4510 C.ar  320  PHE320     -0.0003
    158  CE2      -34.0570   12.3860   14.5160 C.ar  320  PHE320     -0.0003
    159  CZ       -34.0770   12.5200   13.1310 C.ar  320  PHE320     -0.0000
    160  N        -27.4790   11.8500   15.4030 N.am  321  ASP321     -0.1971
    161  CA       -26.0740   12.2450   15.4970 C.3   321  ASP321      0.1709
    162  C        -25.9510   13.7560   15.3690 C.2   321  ASP321      0.2293
    163  O        -26.6000   14.3710   14.5150 O.2   321  ASP321     -0.2864
    164  CB       -25.2430   11.5760   14.3990 C.3   321  ASP321      0.1436
    165  CG       -24.9460   10.1210   14.6890 C.2   321  ASP321      0.3671
    166  OD1      -25.3050    9.6320   15.7830 O.co2 321  ASP321     -0.2456
    167  OD2      -24.3450    9.4610   13.8130 O.co2 321  ASP321     -0.2456
@<TRIPOS>BOND
     1    35    34    2
     2   136   135    2
     3   135   134    1
     4   139   138   ar
     5    34    33    1
     6    46    44    1
     7   134   133    1
     8   134   137    1
     9    32    33    1
    10   138   137    1
    11   138   140   ar
    12   133   130   am
    13    33    36    1
    14   131   130    2
    15   130   129    1
    16    44    45    1
    17    44    43    1
    18    36    37    1
    19    36    38    1
    20    39    40    1
    21    40    43    1
    22    40    41    1
    23    54    53   ar
    24   129   128    1
    25   129   132    1
    26   119   117   am
    27    47    41   am
    28    47    48    1
    29    41    42    2
    30    51    48    1
    31    51    52    1
    32    53    55   ar
    33    53    52    1
    34   117   116    1
    35   117   118    2
    36    48    49    1
    37   116   113    1
    38    30    29    2
    39   115   114    2
    40    49    50    2
    41    49    56   am
    42   113   114    1
    43   113   112    1
    44    29    28    1
    45    26    24    1
    46    56    57    1
    47   112   105   am
    48    27    28    1
    49    25    24    1
    50    28    31    1
    51   126   125    1
    52    24    21    1
    53    21    20    1
    54    21    22    1
    55   125   124    1
    56   125   127    1
    57   105   106    2
    58   105   104    1
    59   120   121    1
    60    57    58    1
    61    57    60    1
    62    15    16    2
    63    15    14    1
    64   124   121    1
    65   107   104    1
    66   107   108    1
    67   123   122    2
    68    58    59    2
    69    58    68   am
    70    22    23    2
    71   103   104    1
    72    60    61    1
    73   121   122    1
    74   110   109   ar
    75    14    17    1
    76    14    13    1
    77    68    69    1
    78    72    69    1
    79   109   108    1
    80   109   111   ar
    81    17    18    1
    82    17    19    1
    83    69    70    1
    84    12    11    2
    85    13    11   am
    86    61    62   ar
    87    61    63   ar
    88    11    10    1
    89    62    64   ar
    90     7     6    1
    91    93    92    1
    92    93    94    1
    93    10     9    1
    94    63    65   ar
    95    70    71    2
    96    70    73   am
    97    95    94   ar
    98     9     3   am
    99    92    89    1
   100    79    73    1
   101    79    78    1
   102     5     6    1
   103     5     2    1
   104    87    86    2
   105    94    96   ar
   106    89    90    1
   107    89    88    1
   108    64    66   ar
   109     6     8    1
   110    73    74    1
   111     3     2    1
   112     3     4    2
   113     1     2    1
   114    86    88   am
   115    86    85    1
   116    90    91    2
   117    65    66   ar
   118    66    67    1
   119    78    77    1
   120    85    84    1
   121    74    77    1
   122    74    75    1
   123    84    82   am
   124    80    75   am
   125    80    81    1
   126    75    76    2
   127    82    81    1
   128    82    83    2
   129    97    98    1
   130   102   101    1
   131   157   159   ar
   132   157   155   ar
   133    98   101    1
   134    98    99    1
   135   159   158   ar
   136   155   154   ar
   137    99   100    2
   138   167   165   ar
   139   164   165    1
   140   164   161    1
   141   163   162    2
   142   158   156   ar
   143   154   156   ar
   144   154   153    1
   145   165   166   ar
   146   153   150    1
   147   162   161    1
   148   160   161    1
   149   160   151   am
   150   150   151    1
   151   150   149    1
   152   151   152    2
   153   149   143   am
   154   148   146   am
   155   144   143    2
   156   143   142    1
   157   146   147    2
   158   146   145    1
   159   145   142    1
   160   142   141    1
