@<TRIPOS>MOLECULE
tmp/3ambA00.pdb
 217 206 0 0 0
SMALL
GASTEIGER

@<TRIPOS>ATOM
      1  N        -27.8330  -16.2550   -8.8220 N.3    46  LEU46      -0.1231
      2  CA       -27.9290  -14.8380   -9.1330 C.3    46  LEU46       0.1693
      3  C        -26.5500  -14.2100   -9.0430 C.2    46  LEU46       0.2592
      4  O        -26.1480  -13.4670   -9.9350 O.2    46  LEU46      -0.2718
      5  CB       -28.8850  -14.1350   -8.1750 C.3    46  LEU46       0.0284
      6  CG       -30.3870  -14.3610   -8.3180 C.3    46  LEU46       0.0019
      7  CD1      -31.1040  -13.7950   -7.0880 C.3    46  LEU46       0.0001
      8  CD2      -30.9020  -13.7090   -9.6150 C.3    46  LEU46       0.0001
      9  N        -25.8380  -14.5310   -7.9610 N.am   47  GLY47      -0.1957
     10  CA       -24.4610  -14.0680   -7.7270 C.3    47  GLY47       0.1869
     11  C        -23.7440  -14.9320   -6.6970 C.2    47  GLY47       0.2309
     12  O        -24.3410  -15.8390   -6.1050 O.2    47  GLY47      -0.2863
     13  N        -25.7810  -16.8840   -4.0040 N.3    54  VAL54      -0.1245
     14  CA       -27.1300  -16.3880   -3.7920 C.3    54  VAL54       0.1561
     15  C        -27.9640  -16.9450   -4.9380 C.2    54  VAL54       0.2260
     16  O        -27.6800  -16.6380   -6.0890 O.2    54  VAL54      -0.2867
     17  CB       -27.1840  -14.8470   -3.7770 C.3    54  VAL54       0.0252
     18  CG1      -28.6280  -14.3520   -3.7160 C.3    54  VAL54       0.0019
     19  CG2      -26.3810  -14.3050   -2.6000 C.3    54  VAL54       0.0019
     20  N        -34.6350  -14.6190   -3.0330 N.3    67  ALA67      -0.1245
     21  CA       -33.2030  -14.8480   -3.1950 C.3    67  ALA67       0.1562
     22  C        -32.6740  -15.5110   -1.9410 C.2    67  ALA67       0.2260
     23  O        -32.8190  -14.9870   -0.8350 O.2    67  ALA67      -0.2867
     24  CB       -32.4630  -13.5620   -3.4820 C.3    67  ALA67       0.0290
     25  N        -29.6140  -16.6170    0.1410 N.3    69  LYS69      -0.1245
     26  CA       -28.2090  -16.4940    0.4190 C.3    69  LYS69       0.1561
     27  C        -27.7550  -17.7000    1.2160 C.2    69  LYS69       0.2260
     28  O        -28.2500  -17.9640    2.3030 O.2    69  LYS69      -0.2867
     29  CB       -27.9270  -15.1850    1.1750 C.3    69  LYS69       0.0271
     30  CG       -26.4550  -14.9570    1.5470 C.3    69  LYS69       0.0035
     31  CD       -26.2450  -13.5340    2.1190 C.3    69  LYS69       0.0206
     32  CE       -24.9150  -13.3930    2.8560 C.3    69  LYS69       0.1093
     33  NZ       -24.6400  -11.9730    3.2440 N.3    69  LYS69      -0.1314
     34  N        -25.8600  -10.0160   11.4530 N.3    88  GLU88      -0.1245
     35  CA       -26.5150   -9.8390   10.1710 C.3    88  GLU88       0.1567
     36  C        -27.9220  -10.4180   10.2530 C.2    88  GLU88       0.2260
     37  O        -28.9050   -9.7350    9.9700 O.2    88  GLU88      -0.2867
     38  CB       -25.7010  -10.4970    9.0320 C.3    88  GLU88       0.0388
     39  CG       -26.4870  -10.6630    7.7320 C.3    88  GLU88       0.1160
     40  CD       -25.6990  -11.3180    6.5940 C.2    88  GLU88       0.3649
     41  OE1      -24.6040  -11.8710    6.8280 O.co2  88  GLU88      -0.2457
     42  OE2      -26.1900  -11.2680    5.4500 O.co2  88  GLU88      -0.2457
     43  N        -31.4040   -8.3900   10.7180 N.3    92  GLN92      -0.1245
     44  CA       -32.2660   -8.3610    9.5620 C.3    92  GLN92       0.1566
     45  C        -33.6770   -8.9210    9.8200 C.2    92  GLN92       0.2260
     46  O        -34.6560   -8.3790    9.2790 O.2    92  GLN92      -0.2867
     47  CB       -31.6120   -8.9690    8.3180 C.3    92  GLN92       0.0367
     48  CG       -32.1200   -8.2860    7.0360 C.3    92  GLN92       0.0905
     49  CD       -31.3820   -8.7180    5.7690 C.2    92  GLN92       0.2608
     50  OE1      -30.4730   -9.5220    5.8250 O.2    92  GLN92      -0.2717
     51  NE2      -31.7660   -8.1520    4.6240 N.am   92  GLN92      -0.0878
     52  N        -34.6730   -4.7920    2.5460 N.3   101  VAL101     -0.1245
     53  CA       -34.9560   -6.1570    2.0900 C.3   101  VAL101      0.1561
     54  C        -35.3930   -7.0210    3.2870 C.2   101  VAL101      0.2260
     55  O        -34.7330   -7.0460    4.3310 O.2   101  VAL101     -0.2867
     56  CB       -33.7130   -6.7920    1.3800 C.3   101  VAL101      0.0252
     57  CG1      -33.8660   -8.2990    1.2260 C.3   101  VAL101      0.0019
     58  CG2      -33.4830   -6.1500    0.0160 C.3   101  VAL101      0.0019
     59  N        -34.3100  -14.1850    1.2490 N.3   117  LEU117     -0.1231
     60  CA       -34.5660  -12.7660    1.2250 C.3   117  LEU117      0.1693
     61  C        -35.6220  -12.4430    0.1990 C.2   117  LEU117      0.2592
     62  O        -35.8050  -13.1820   -0.7480 O.2   117  LEU117     -0.2718
     63  CB       -33.2780  -12.0060    0.8850 C.3   117  LEU117      0.0284
     64  CG       -32.1300  -12.2860    1.8750 C.3   117  LEU117      0.0019
     65  CD1      -30.7850  -11.9400    1.2630 C.3   117  LEU117      0.0001
     66  CD2      -32.3280  -11.5870    3.2060 C.3   117  LEU117      0.0001
     67  N        -36.2990  -11.3270    0.4090 N.am  118  GLU118     -0.1966
     68  CA       -37.1440  -10.6790   -0.5890 C.3   118  GLU118      0.1733
     69  C        -36.4660  -10.5140   -1.9600 C.2   118  GLU118      0.2616
     70  O        -35.3790   -9.9150   -2.0740 O.2   118  GLU118     -0.2715
     71  CB       -37.5220   -9.2960   -0.0460 C.3   118  GLU118      0.0429
     72  CG       -38.6530   -8.5630   -0.7670 C.3   118  GLU118      0.1163
     73  CD       -39.1440   -7.3660    0.0300 C.2   118  GLU118      0.3649
     74  OE1      -38.4860   -6.9950    1.0340 O.co2 118  GLU118     -0.2457
     75  OE2      -40.2000   -6.7990   -0.3430 O.co2 118  GLU118     -0.2457
     76  N        -37.1140  -11.0430   -3.0020 N.am  119  TYR119     -0.1960
     77  CA       -36.6320  -10.8780   -4.3720 C.3   119  TYR119      0.1771
     78  C        -37.0610   -9.5290   -4.9670 C.2   119  TYR119      0.2619
     79  O        -38.2490   -9.1800   -4.9650 O.2   119  TYR119     -0.2715
     80  CB       -37.1090  -12.0170   -5.2860 C.3   119  TYR119      0.0574
     81  CG       -36.5860  -11.8980   -6.7200 C.ar  119  TYR119     -0.0198
     82  CD1      -35.2410  -12.1100   -6.9970 C.ar  119  TYR119     -0.0009
     83  CD2      -37.4370  -11.5700   -7.7900 C.ar  119  TYR119     -0.0009
     84  CE1      -34.7410  -12.0110   -8.2790 C.ar  119  TYR119      0.0417
     85  CE2      -36.9360  -11.4830   -9.1170 C.ar  119  TYR119      0.0417
     86  CZ       -35.5750  -11.6970   -9.3350 C.ar  119  TYR119      0.1957
     87  OH       -35.0020  -11.6000  -10.5880 O.3   119  TYR119     -0.2866
     88  N        -36.0700   -8.8000   -5.4710 N.am  120  ALA120     -0.1964
     89  CA       -36.2390   -7.5360   -6.1670 C.3   120  ALA120      0.1713
     90  C        -35.9980   -7.7870   -7.6430 C.2   120  ALA120      0.2458
     91  O        -34.8860   -8.1270   -8.0350 O.2   120  ALA120     -0.2730
     92  CB       -35.2370   -6.5050   -5.6460 C.3   120  ALA120      0.0333
     93  N        -37.0460   -7.6510   -8.4640 N.am  121  PRO121     -0.2716
     94  CA       -36.9480   -8.0090   -9.8820 C.3   121  PRO121      0.1536
     95  C        -36.0080   -7.1070  -10.6850 C.2   121  PRO121      0.2599
     96  O        -35.5330   -7.5170  -11.7370 O.2   121  PRO121     -0.2715
     97  CB       -38.3910   -7.8280  -10.3910 C.3   121  PRO121      0.0310
     98  CG       -39.2450   -7.9120   -9.1740 C.3   121  PRO121      0.0237
     99  CD       -38.4290   -7.3020   -8.0730 C.3   121  PRO121      0.0939
    100  N        -35.7680   -5.8860  -10.2080 N.am  122  GLY122     -0.1941
    101  CA       -34.9100   -4.9390  -10.9260 C.3   122  GLY122      0.2014
    102  C        -33.4090   -5.1710  -10.8090 C.2   122  GLY122      0.2639
    103  O        -32.6380   -4.5870  -11.5560 O.2   122  GLY122     -0.2714
    104  N        -32.9770   -6.0160   -9.8840 N.am  123  GLY123     -0.1939
    105  CA       -31.5330   -6.1850   -9.6580 C.3   123  GLY123      0.2014
    106  C        -30.9640   -5.0310   -8.8380 C.2   123  GLY123      0.2638
    107  O        -31.7090   -4.2630   -8.2330 O.2   123  GLY123     -0.2714
    108  N        -29.6480   -4.8780   -8.8220 N.am  124  GLU124     -0.1977
    109  CA       -29.0720   -3.8310   -7.9910 C.3   124  GLU124      0.1602
    110  C        -28.7750   -2.5700   -8.7810 C.2   124  GLU124      0.2287
    111  O        -28.6470   -2.6210  -10.0040 O.2   124  GLU124     -0.2864
    112  CB       -27.8640   -4.3510   -7.1800 C.3   124  GLU124      0.0415
    113  CG       -26.5190   -4.1780   -7.8180 C.3   124  GLU124      0.1163
    114  CD       -26.2880   -5.0880   -8.9990 C.2   124  GLU124      0.3649
    115  OE1      -27.1310   -5.9730   -9.2850 O.co2 124  GLU124     -0.2457
    116  OE2      -25.2420   -4.9130   -9.6520 O.co2 124  GLU124     -0.2457
    117  N        -25.5300   -1.9180  -11.3060 N.3   127  SER127     -0.1202
    118  CA       -25.6260   -2.2980  -12.7120 C.3   127  SER127      0.2020
    119  C        -26.2720   -1.2580  -13.5930 C.2   127  SER127      0.2618
    120  O        -25.8040   -1.0250  -14.7160 O.2   127  SER127     -0.2717
    121  CB       -26.3770   -3.6150  -12.8870 C.3   127  SER127      0.2103
    122  OG       -25.5030   -4.7050  -12.6570 O.3   127  SER127     -0.2182
    123  N        -27.3480   -0.6540  -13.1000 N.am  128  HIS128     -0.1975
    124  CA       -28.0730    0.3400  -13.8710 C.3   128  HIS128      0.1656
    125  C        -27.2230    1.6090  -13.9490 C.2   128  HIS128      0.2291
    126  O        -27.1550    2.2580  -14.9890 O.2   128  HIS128     -0.2864
    127  CB       -29.4620    0.6290  -13.2710 C.3   128  HIS128      0.0771
    128  CG       -30.3500   -0.5690  -13.1900 C.ar  128  HIS128      0.0820
    129  ND1      -30.9730   -1.1170  -14.2960 N.ar  128  HIS128     -0.2267
    130  CD2      -30.7260   -1.3310  -12.1340 C.ar  128  HIS128      0.1154
    131  CE1      -31.6830   -2.1700  -13.9260 C.ar  128  HIS128      0.1986
    132  NE2      -31.5500   -2.3220  -12.6180 N.ar  128  HIS128     -0.2212
    133  N        -24.2480    1.1070  -16.3840 N.3   131  ARG131     -0.1245
    134  CA       -24.7690    1.0670  -17.7660 C.3   131  ARG131      0.1563
    135  C        -25.1490    2.4660  -18.2760 C.2   131  ARG131      0.2260
    136  O        -24.7100    2.8730  -19.3520 O.2   131  ARG131     -0.2867
    137  CB       -25.9430    0.0780  -17.9150 C.3   131  ARG131      0.0307
    138  CG       -26.4900   -0.0720  -19.3660 C.3   131  ARG131      0.0489
    139  CD       -27.6620   -1.0730  -19.4690 C.3   131  ARG131      0.2205
    140  NE       -28.8470   -0.5690  -18.7650 N.pl3 131  ARG131     -0.0865
    141  CZ       -29.3540   -1.0680  -17.6300 C.cat 131  ARG131      0.5346
    142  NH1      -28.8060   -2.1390  -17.0350 N.pl3 131  ARG131      0.1354
    143  NH2      -30.4310   -0.4920  -17.0880 N.pl3 131  ARG131      0.1354
    144  N        -23.9380   -1.3510   -4.9780 N.3   167  GLU167     -0.1231
    145  CA       -24.0000   -2.8260   -5.0260 C.3   167  GLU167      0.1699
    146  C        -25.0170   -3.3910   -4.0400 C.2   167  GLU167      0.2592
    147  O        -25.5690   -4.4670   -4.2740 O.2   167  GLU167     -0.2718
    148  CB       -22.6240   -3.4850   -4.7720 C.3   167  GLU167      0.0402
    149  CG       -21.5810   -3.2300   -5.8640 C.3   167  GLU167      0.1161
    150  CD       -20.6970   -2.0060   -5.6040 C.2   167  GLU167      0.3649
    151  OE1      -21.2120   -0.9570   -5.1770 O.co2 167  GLU167     -0.2457
    152  OE2      -19.4680   -2.1120   -5.8110 O.co2 167  GLU167     -0.2457
    153  N        -25.2540   -2.6700   -2.9520 N.am  168  ASN168     -0.1974
    154  CA       -26.1060   -3.1590   -1.8760 C.3   168  ASN168      0.1688
    155  C        -27.5400   -2.6570   -1.9230 C.2   168  ASN168      0.2292
    156  O        -28.3240   -2.9680   -1.0320 O.2   168  ASN168     -0.2864
    157  CB       -25.4840   -2.8610   -0.4950 C.3   168  ASN168      0.1181
    158  CG       -24.2800   -3.7400   -0.1950 C.2   168  ASN168      0.2629
    159  OD1      -23.9420   -4.6380   -0.9780 O.2   168  ASN168     -0.2716
    160  ND2      -23.6340   -3.4980    0.9380 N.am  168  ASN168     -0.0877
    161  N        -31.0710   -2.5870   -3.9540 N.3   170  LEU170     -0.1245
    162  CA       -31.9070   -3.2010   -4.9830 C.3   170  LEU170      0.1561
    163  C        -33.0270   -2.2660   -5.4610 C.2   170  LEU170      0.2260
    164  O        -33.5180   -1.4430   -4.7020 O.2   170  LEU170     -0.2867
    165  CB       -32.4770   -4.5260   -4.4860 C.3   170  LEU170      0.0270
    166  CG       -31.4340   -5.5280   -3.9970 C.3   170  LEU170      0.0019
    167  CD1      -32.0970   -6.7400   -3.4250 C.3   170  LEU170      0.0001
    168  CD2      -30.4940   -5.9260   -5.0960 C.3   170  LEU170      0.0001
    169  N        -30.0350   -4.2990    0.7820 N.3   180  ALA180     -0.1231
    170  CA       -30.0160   -5.7540    0.8570 C.3   180  ALA180      0.1694
    171  C        -29.1400   -6.3830    1.9330 C.2   180  ALA180      0.2592
    172  O        -29.5770   -7.2870    2.6270 O.2   180  ALA180     -0.2718
    173  CB       -29.6720   -6.3410   -0.4950 C.3   180  ALA180      0.0304
    174  N        -27.9020   -5.9110    2.0450 N.am  181  ASP181     -0.1974
    175  CA       -26.8480   -6.6700    2.7160 C.3   181  ASP181      0.1709
    176  C        -26.6460   -6.1620    4.1300 C.2   181  ASP181      0.2293
    177  O        -26.2430   -5.0180    4.3140 O.2   181  ASP181     -0.2864
    178  CB       -25.5580   -6.5660    1.8900 C.3   181  ASP181      0.1436
    179  CG       -24.4730   -7.5520    2.3160 C.2   181  ASP181      0.3671
    180  OD1      -24.5190   -8.1420    3.4180 O.co2 181  ASP181     -0.2456
    181  OD2      -23.5250   -7.7270    1.5200 O.co2 181  ASP181     -0.2456
    182  N        -37.6840   -3.2150  -16.5650 N.3   313  LYS313     -0.1245
    183  CA       -38.3160   -4.0280  -17.5950 C.3   313  LYS313      0.1561
    184  C        -38.5250   -5.4380  -17.0650 C.2   313  LYS313      0.2260
    185  O        -37.5750   -6.0590  -16.5770 O.2   313  LYS313     -0.2867
    186  CB       -37.4320   -4.0620  -18.8520 C.3   313  LYS313      0.0271
    187  CG       -37.7020   -2.9430  -19.8490 C.3   313  LYS313      0.0035
    188  CD       -38.6970   -3.3930  -20.9210 C.3   313  LYS313      0.0206
    189  CE       -39.7220   -2.3030  -21.2570 C.3   313  LYS313      0.1093
    190  NZ       -39.1070   -0.9840  -21.6120 N.3   313  LYS313     -0.1314
    191  N        -31.9480  -12.0410  -19.5650 N.3   317  ASN317     -0.1225
    192  CA       -31.1290  -10.9160  -19.1190 C.3   317  ASN317      0.1785
    193  C        -30.1410  -11.3220  -18.0190 C.2   317  ASN317      0.2597
    194  O        -29.1870  -10.5910  -17.7280 O.2   317  ASN317     -0.2718
    195  CB       -32.0330   -9.7800  -18.6170 C.3   317  ASN317      0.1169
    196  CG       -33.0250  -10.2400  -17.5380 C.2   317  ASN317      0.2627
    197  OD1      -32.6450  -10.5250  -16.3960 O.2   317  ASN317     -0.2716
    198  ND2      -34.3050  -10.2960  -17.9020 N.am  317  ASN317     -0.0877
    199  N        -30.3900  -12.4820  -17.4110 N.am  318  PHE318     -0.1962
    200  CA       -29.5570  -13.0150  -16.3340 C.3   318  PHE318      0.1771
    201  C        -28.1780  -13.4360  -16.8170 C.2   318  PHE318      0.2619
    202  O        -28.0130  -13.8600  -17.9620 O.2   318  PHE318     -0.2715
    203  CB       -30.2250  -14.2320  -15.6920 C.3   318  PHE318      0.0574
    204  CG       -31.4280  -13.9040  -14.8660 C.ar  318  PHE318     -0.0200
    205  CD1      -31.2850  -13.4440  -13.5580 C.ar  318  PHE318     -0.0042
    206  CD2      -32.7070  -14.0660  -15.3880 C.ar  318  PHE318     -0.0042
    207  CE1      -32.3980  -13.1430  -12.7850 C.ar  318  PHE318     -0.0003
    208  CE2      -33.8320  -13.7640  -14.6220 C.ar  318  PHE318     -0.0003
    209  CZ       -33.6780  -13.3010  -13.3180 C.ar  318  PHE318     -0.0000
    210  N        -27.1980  -13.3280  -15.9250 N.am  319  ASP319     -0.1971
    211  CA       -25.8700  -13.8710  -16.1660 C.3   319  ASP319      0.1709
    212  C        -25.9010  -15.3910  -16.0630 C.2   319  ASP319      0.2293
    213  O        -26.7570  -15.9590  -15.3800 O.2   319  ASP319     -0.2864
    214  CB       -24.8670  -13.2930  -15.1630 C.3   319  ASP319      0.1436
    215  CG       -24.4470  -11.8770  -15.5120 C.2   319  ASP319      0.3671
    216  OD1      -24.2550  -11.5920  -16.7150 O.co2 319  ASP319     -0.2456
    217  OD2      -24.3010  -11.0490  -14.5870 O.co2 319  ASP319     -0.2456
@<TRIPOS>BOND
     1   190   189    1
     2   189   188    1
     3   188   187    1
     4   187   186    1
     5   191   192    1
     6   139   138    1
     7   139   140    1
     8   138   137    1
     9   136   135    2
    10   192   195    1
    11   192   193    1
    12   186   183    1
    13   140   141    2
    14   195   196    1
    15   135   134    1
    16   193   194    2
    17   193   199   am
    18   202   201    2
    19   137   134    1
    20   198   196   am
    21   134   133    1
    22   141   143    1
    23   141   142    1
    24   183   184    1
    25   183   182    1
    26   196   197    2
    27   199   200    1
    28   184   185    2
    29   201   200    1
    30   201   210   am
    31   216   215   ar
    32   200   203    1
    33   211   212    1
    34   211   210    1
    35   211   214    1
    36   212   213    2
    37   203   204    1
    38   215   214    1
    39   215   217   ar
    40   206   204   ar
    41   206   208   ar
    42   126   125    2
    43   204   205   ar
    44   120   119    2
    45   208   209   ar
    46   129   131   ar
    47   129   128   ar
    48   125   124    1
    49   131   132   ar
    50   124   127    1
    51   124   123    1
    52   119   123   am
    53   119   118    1
    54   205   207   ar
    55   209   207   ar
    56   127   128    1
    57   128   130   ar
    58   121   118    1
    59   121   122    1
    60   118   117    1
    61   132   130   ar
    62    96    95    2
    63   103   102    2
    64   101   102    1
    65   101   100    1
    66   102   104   am
    67    95   100   am
    68    95    94    1
    69    87    86    1
    70    97    94    1
    71    97    98    1
    72   111   110    2
    73     4     3    2
    74   104   105    1
    75    94    93    1
    76   105   106    1
    77   116   114   ar
    78     8     6    1
    79    86    85   ar
    80    86    84   ar
    81   115   114   ar
    82    98    99    1
    83     2     3    1
    84     2     1    1
    85     2     5    1
    86    85    83   ar
    87     3     9   am
    88   114   113    1
    89   106   108   am
    90   106   107    2
    91   108   109    1
    92   110   109    1
    93    93    99    1
    94    93    90   am
    95     6     5    1
    96     6     7    1
    97    84    82   ar
    98    91    90    2
    99   109   112    1
   100     9    10    1
   101   113   112    1
   102    83    81   ar
   103    10    11    1
   104    90    89    1
   105    82    81   ar
   106    81    80    1
   107    11    12    2
   108    89    92    1
   109    89    88    1
   110    16    15    2
   111   149   150    1
   112   149   148    1
   113   152   150   ar
   114   150   151   ar
   115    88    78   am
   116   163   162    1
   117   163   164    2
   118    80    77    1
   119   168   166    1
   120   145   144    1
   121   145   148    1
   122   145   146    1
   123   162   165    1
   124   162   161    1
   125    78    79    2
   126    78    77    1
   127    15    14    1
   128   165   166    1
   129    77    76    1
   130   147   146    2
   131   146   153   am
   132    13    14    1
   133   166   167    1
   134    14    17    1
   135    17    18    1
   136    17    19    1
   137    24    21    1
   138    21    20    1
   139    21    22    1
   140    76    69   am
   141   153   154    1
   142    70    69    2
   143    69    68    1
   144    22    23    2
   145   155   154    1
   146   155   156    2
   147   154   157    1
   148   159   158    2
   149    72    71    1
   150    72    73    1
   151    62    61    2
   152    68    71    1
   153    68    67    1
   154   173   170    1
   155   157   158    1
   156    75    73   ar
   157   158   160   am
   158    58    56    1
   159    73    74   ar
   160    25    26    1
   161    61    67   am
   162    61    60    1
   163    26    29    1
   164    26    27    1
   165   169   170    1
   166   170   171    1
   167    63    60    1
   168    63    64    1
   169    29    30    1
   170    27    28    2
   171    60    59    1
   172    57    56    1
   173    65    64    1
   174    56    53    1
   175   181   179   ar
   176    30    31    1
   177    64    66    1
   178   178   179    1
   179   178   175    1
   180   171   174   am
   181   171   172    2
   182   174   175    1
   183    53    52    1
   184    53    54    1
   185    31    32    1
   186   179   180   ar
   187   175   176    1
   188    32    33    1
   189    54    55    2
   190   176   177    2
   191    51    49   am
   192    42    40   ar
   193    49    50    2
   194    49    48    1
   195    40    41   ar
   196    40    39    1
   197    48    47    1
   198    39    38    1
   199    47    44    1
   200    38    35    1
   201    46    45    2
   202    44    45    1
   203    44    43    1
   204    37    36    2
   205    35    36    1
   206    35    34    1
