@<TRIPOS>MOLECULE
tmp/3amgB00.pdb
 158 159 0 0 0
SMALL
GASTEIGER

@<TRIPOS>ATOM
      1  N         10.4220    2.6720   -8.9550 N.3    19  ASN19      -0.1240
      2  CA        11.3070    3.3120   -7.9950 C.3    19  ASN19       0.1653
      3  C         12.6830    3.4440   -8.6120 C.2    19  ASN19       0.2266
      4  O         13.7070    3.2930   -7.9320 O.2    19  ASN19      -0.2867
      5  CB        11.3570    2.4960   -6.6870 C.3    19  ASN19       0.1155
      6  CG        10.0630    2.6130   -5.8670 C.2    19  ASN19       0.2627
      7  OD1        9.6930    3.7040   -5.4180 O.2    19  ASN19      -0.2716
      8  ND2        9.3700    1.4910   -5.6810 N.am   19  ASN19      -0.0877
      9  N         11.9070    7.2060  -12.2270 N.3    22  GLU22      -0.1245
     10  CA        10.7980    8.0860  -11.8640 C.3    22  GLU22       0.1567
     11  C         11.0660    8.8190  -10.5310 C.2    22  GLU22       0.2260
     12  O         10.2100    9.5540  -10.0260 O.2    22  GLU22      -0.2867
     13  CB         9.4780    7.3050  -11.7830 C.3    22  GLU22       0.0388
     14  CG         9.1720    6.6980  -10.4360 C.3    22  GLU22       0.1160
     15  CD         9.4620    5.2290  -10.4010 C.2    22  GLU22       0.3649
     16  OE1        8.6430    4.4840   -9.8280 O.co2  22  GLU22      -0.2457
     17  OE2       10.5120    4.8070  -10.9400 O.co2  22  GLU22      -0.2457
     18  N         15.5790    6.2750   -5.0030 N.3    29  TRP29      -0.1241
     19  CA        14.6430    5.4280   -4.2960 C.3    29  TRP29       0.1605
     20  C         15.0410    3.9530   -4.2250 C.2    29  TRP29       0.2264
     21  O         14.1900    3.0840   -4.0570 O.2    29  TRP29      -0.2867
     22  CB        13.2490    5.5890   -4.9140 C.3    29  TRP29       0.0550
     23  CG        12.7220    7.0070   -4.8260 C.ar   29  TRP29       0.0003
     24  CD1       13.2660    8.0480   -4.1110 C.ar   29  TRP29       0.0946
     25  CD2       11.4960    7.5060   -5.3800 C.ar   29  TRP29       0.0152
     26  NE1       12.4490    9.1510   -4.1790 N.ar   29  TRP29      -0.2442
     27  CE2       11.3550    8.8480   -4.9490 C.ar   29  TRP29       0.0810
     28  CE3       10.4980    6.9500   -6.1960 C.ar   29  TRP29       0.0012
     29  CZ2       10.2550    9.6370   -5.3040 C.ar   29  TRP29       0.0191
     30  CZ3        9.4030    7.7410   -6.5490 C.ar   29  TRP29       0.0001
     31  CH2        9.2940    9.0670   -6.1010 C.ar   29  TRP29       0.0015
     32  N          6.2280   10.1390  -15.9030 N.3    94  HIS94      -0.1226
     33  CA         5.7680    9.7700  -14.5790 C.3    94  HIS94       0.1752
     34  C          6.2380   10.7710  -13.5370 C.2    94  HIS94       0.2596
     35  O          7.3770   11.2570  -13.5910 O.2    94  HIS94      -0.2718
     36  CB         6.3010    8.3670  -14.2750 C.3    94  HIS94       0.0759
     37  CG         5.5130    7.6100  -13.2540 C.ar   94  HIS94       0.0818
     38  ND1        4.6910    6.5550  -13.5840 N.ar   94  HIS94      -0.2268
     39  CD2        5.4710    7.7120  -11.9040 C.ar   94  HIS94       0.1154
     40  CE1        4.1780    6.0400  -12.4820 C.ar   94  HIS94       0.1986
     41  NE2        4.6360    6.7230  -11.4490 N.ar   94  HIS94      -0.2212
     42  N          5.3400   11.0780  -12.6030 N.am   95  HIS95      -0.1975
     43  CA         5.5930   12.0060  -11.5000 C.3    95  HIS95       0.1656
     44  C          5.9680   13.4350  -11.8390 C.2    95  HIS95       0.2291
     45  O          6.8280   14.0270  -11.1810 O.2    95  HIS95      -0.2864
     46  CB         6.6360   11.4300  -10.5390 C.3    95  HIS95       0.0771
     47  CG         6.1040   10.3360   -9.6700 C.ar   95  HIS95       0.0820
     48  ND1        6.9150    9.3800   -9.0920 N.ar   95  HIS95      -0.2267
     49  CD2        4.8370   10.0330   -9.2970 C.ar   95  HIS95       0.1154
     50  CE1        6.1690    8.5330   -8.4070 C.ar   95  HIS95       0.1986
     51  NE2        4.9060    8.9060   -8.5160 N.ar   95  HIS95      -0.2212
     52  N          0.9770    9.5470  -16.5280 N.3   134  ASN134     -0.1225
     53  CA         0.6250    8.6460  -15.4460 C.3   134  ASN134      0.1785
     54  C         -0.3180    9.2570  -14.4070 C.2   134  ASN134      0.2597
     55  O         -0.1540   10.4070  -13.9940 O.2   134  ASN134     -0.2718
     56  CB         1.8930    8.1950  -14.7410 C.3   134  ASN134      0.1169
     57  CG         1.6130    7.2840  -13.5800 C.2   134  ASN134      0.2627
     58  OD1        1.2610    6.1120  -13.7610 O.2   134  ASN134     -0.2716
     59  ND2        1.7590    7.8140  -12.3720 N.am  134  ASN134     -0.0877
     60  N         -1.2880    8.4560  -13.9810 N.am  135  ALA135     -0.1979
     61  CA        -2.2850    8.8220  -12.9780 C.3   135  ALA135      0.1597
     62  C         -2.4550   10.3050  -12.6840 C.2   135  ALA135      0.2287
     63  O         -2.1210   10.7710  -11.5950 O.2   135  ALA135     -0.2864
     64  CB        -1.9950    8.0760  -11.6870 C.3   135  ALA135      0.0319
     65  N         -6.0960   10.1580  -10.1600 N.3   172  TRP172     -0.1241
     66  CA        -5.1670    9.0940   -9.7780 C.3   172  TRP172      0.1605
     67  C         -5.1200    7.8330  -10.6390 C.2   172  TRP172      0.2264
     68  O         -4.8630    6.7500  -10.1240 O.2   172  TRP172     -0.2867
     69  CB        -5.4110    8.6860   -8.3260 C.3   172  TRP172      0.0550
     70  CG        -4.5480    9.3980   -7.3310 C.ar  172  TRP172      0.0003
     71  CD1       -4.4770   10.7460   -7.1130 C.ar  172  TRP172      0.0946
     72  CD2       -3.6620    8.7890   -6.3800 C.ar  172  TRP172      0.0152
     73  NE1       -3.6040   11.0150   -6.0810 N.ar  172  TRP172     -0.2442
     74  CE2       -3.0910    9.8310   -5.6140 C.ar  172  TRP172      0.0810
     75  CE3       -3.2980    7.4620   -6.0980 C.ar  172  TRP172      0.0012
     76  CZ2       -2.1740    9.5850   -4.5820 C.ar  172  TRP172      0.0191
     77  CZ3       -2.3910    7.2190   -5.0750 C.ar  172  TRP172      0.0001
     78  CH2       -1.8390    8.2750   -4.3290 C.ar  172  TRP172      0.0015
     79  N         -5.0780    1.7510  -13.4770 N.3   195  HIS195     -0.1241
     80  CA        -4.2690    1.3040  -12.3610 C.3   195  HIS195      0.1621
     81  C         -5.2410    0.6870  -11.3770 C.2   195  HIS195      0.2264
     82  O         -6.0360    1.3930  -10.7420 O.2   195  HIS195     -0.2867
     83  CB        -3.5390    2.4760  -11.7120 C.3   195  HIS195      0.0745
     84  CG        -2.4180    3.0210  -12.5390 C.ar  195  HIS195      0.0817
     85  ND1       -1.7150    4.1490  -12.1840 N.ar  195  HIS195     -0.2268
     86  CD2       -1.8950    2.6050  -13.7150 C.ar  195  HIS195      0.1154
     87  CE1       -0.8120    4.4090  -13.1090 C.ar  195  HIS195      0.1986
     88  NE2       -0.9010    3.4880  -14.0490 N.ar  195  HIS195     -0.2212
     89  N         -5.6420   -0.9430   -8.0210 N.3   197  TYR197     -0.1241
     90  CA        -5.0400   -1.1930   -6.7240 C.3   197  TYR197      0.1605
     91  C         -6.1330   -1.3810   -5.6890 C.2   197  TYR197      0.2264
     92  O         -5.8680   -1.3530   -4.4960 O.2   197  TYR197     -0.2867
     93  CB        -4.1500   -0.0190   -6.3070 C.3   197  TYR197      0.0534
     94  CG        -2.8220    0.0670   -7.0340 C.ar  197  TYR197     -0.0201
     95  CD1       -1.8830   -0.9510   -6.9340 C.ar  197  TYR197     -0.0009
     96  CD2       -2.4850    1.2010   -7.7720 C.ar  197  TYR197     -0.0009
     97  CE1       -0.6310   -0.8420   -7.5430 C.ar  197  TYR197      0.0417
     98  CE2       -1.2310    1.3200   -8.3860 C.ar  197  TYR197      0.0417
     99  CZ        -0.3100    0.3000   -8.2630 C.ar  197  TYR197      0.1957
    100  OH         0.9390    0.4370   -8.8210 O.3   197  TYR197     -0.2866
    101  N         -2.4070   -0.7370   -0.2710 N.3   204  HIS204     -0.1241
    102  CA        -1.5440    0.3030    0.2560 C.3   204  HIS204      0.1621
    103  C         -1.5710    0.4340    1.7590 C.2   204  HIS204      0.2264
    104  O         -1.3540    1.5190    2.2910 O.2   204  HIS204     -0.2867
    105  CB        -1.9130    1.6360   -0.3820 C.3   204  HIS204      0.0745
    106  CG        -1.4760    1.7520   -1.8050 C.ar  204  HIS204      0.0817
    107  ND1       -1.7360    0.7770   -2.7420 N.ar  204  HIS204     -0.2268
    108  CD2       -0.7750    2.7140   -2.4480 C.ar  204  HIS204      0.1154
    109  CE1       -1.2110    1.1310   -3.9010 C.ar  204  HIS204      0.1986
    110  NE2       -0.6220    2.3030   -3.7490 N.ar  204  HIS204     -0.2212
    111  N          3.0500    6.9970    1.5500 N.3   209  TRP209     -0.1241
    112  CA         2.5410    8.0380    0.6790 C.3   209  TRP209      0.1605
    113  C          1.0210    8.1600    0.5790 C.2   209  TRP209      0.2264
    114  O          0.5210    8.9000   -0.2620 O.2   209  TRP209     -0.2867
    115  CB         3.1550    7.8670   -0.7150 C.3   209  TRP209      0.0550
    116  CG         2.8600    6.5460   -1.3560 C.ar  209  TRP209      0.0003
    117  CD1        1.8790    6.2830   -2.2660 C.ar  209  TRP209      0.0946
    118  CD2        3.5240    5.3010   -1.1100 C.ar  209  TRP209      0.0152
    119  NE1        1.8900    4.9590   -2.5980 N.ar  209  TRP209     -0.2442
    120  CE2        2.8890    4.3300   -1.9030 C.ar  209  TRP209      0.0810
    121  CE3        4.5960    4.9110   -0.2970 C.ar  209  TRP209      0.0012
    122  CZ2        3.2910    2.9840   -1.9070 C.ar  209  TRP209      0.0191
    123  CZ3        4.9910    3.5870   -0.3050 C.ar  209  TRP209      0.0001
    124  CH2        4.3420    2.6370   -1.1020 C.ar  209  TRP209      0.0015
    125  N         -0.3770   -0.9250  -14.0730 N.3   232  GLU232     -0.1245
    126  CA         0.0300   -0.9970  -12.6730 C.3   232  GLU232      0.1567
    127  C         -0.9860   -1.6640  -11.7420 C.2   232  GLU232      0.2260
    128  O         -2.1790   -1.3310  -11.7420 O.2   232  GLU232     -0.2867
    129  CB         0.3320    0.4100  -12.1430 C.3   232  GLU232      0.0388
    130  CG         1.7550    0.8890  -12.3610 C.3   232  GLU232      0.1160
    131  CD         1.9980    2.3020  -11.8110 C.2   232  GLU232      0.3649
    132  OE1        1.5520    2.5860  -10.6770 O.co2 232  GLU232     -0.2457
    133  OE2        2.6440    3.1200  -12.5070 O.co2 232  GLU232     -0.2457
    134  N          2.9520   -4.0190  -10.5480 N.3   265  TRP265     -0.1241
    135  CA         3.6930   -2.8920  -10.0080 C.3   265  TRP265      0.1605
    136  C          4.8770   -3.2390   -9.1410 C.2   265  TRP265      0.2264
    137  O          4.7850   -3.9840   -8.1620 O.2   265  TRP265     -0.2867
    138  CB         2.8100   -1.9160   -9.2270 C.3   265  TRP265      0.0550
    139  CG         3.6370   -0.7730   -8.6220 C.ar  265  TRP265      0.0003
    140  CD1        3.7580   -0.4550   -7.2940 C.ar  265  TRP265      0.0946
    141  CD2        4.4500    0.1800   -9.3280 C.ar  265  TRP265      0.0152
    142  NE1        4.5870    0.6290   -7.1320 N.ar  265  TRP265     -0.2442
    143  CE2        5.0240    1.0400   -8.3620 C.ar  265  TRP265      0.0810
    144  CE3        4.7470    0.3940  -10.6780 C.ar  265  TRP265      0.0012
    145  CZ2        5.8690    2.0900   -8.7070 C.ar  265  TRP265      0.0191
    146  CZ3        5.5860    1.4380  -11.0150 C.ar  265  TRP265      0.0001
    147  CH2        6.1350    2.2720  -10.0350 C.ar  265  TRP265      0.0015
    148  N          6.9300   -3.2550   -3.4700 N.3   271  PHE271     -0.1241
    149  CA         5.9700   -4.2160   -4.0210 C.3   271  PHE271      0.1605
    150  C          6.7370   -5.3430   -4.7070 C.2   271  PHE271      0.2264
    151  O          6.1410   -6.1790   -5.3920 O.2   271  PHE271     -0.2867
    152  CB         5.0720   -3.5520   -5.0570 C.3   271  PHE271      0.0534
    153  CG         4.1850   -2.4870   -4.5040 C.ar  271  PHE271     -0.0203
    154  CD1        2.8340   -2.7360   -4.2920 C.ar  271  PHE271     -0.0042
    155  CD2        4.6840   -1.2200   -4.2320 C.ar  271  PHE271     -0.0042
    156  CE1        1.9870   -1.7370   -3.8200 C.ar  271  PHE271     -0.0003
    157  CE2        3.8520   -0.2200   -3.7630 C.ar  271  PHE271     -0.0003
    158  CZ         2.4960   -0.4760   -3.5560 C.ar  271  PHE271     -0.0000
@<TRIPOS>BOND
     1    52    53    1
     2    32    33    1
     3    53    56    1
     4    53    54    1
     5    56    57    1
     6    33    36    1
     7    33    34    1
     8    54    55    2
     9    54    60   am
    10    36    37    1
    11   125   126    1
    12    88    86   ar
    13    88    87   ar
    14    60    61    1
    15    58    57    2
    16    86    84   ar
    17    35    34    2
    18    38    37   ar
    19    38    40   ar
    20    57    59   am
    21    34    42   am
    22    79    80    1
    23    37    39   ar
    24    87    85   ar
    25    61    62    1
    26    61    64    1
    27    62    63    2
    28   126   129    1
    29   126   127    1
    30    42    43    1
    31    84    85   ar
    32    84    83    1
    33   133   131   ar
    34    40    41   ar
    35    80    83    1
    36    80    81    1
    37   130   129    1
    38   130   131    1
    39     9    10    1
    40    39    41   ar
    41    10    13    1
    42    10    11    1
    43    44    43    1
    44    44    45    2
    45   131   132   ar
    46    13    14    1
    47   127   128    2
    48    43    46    1
    49    81    82    2
    50   146   144   ar
    51   146   147   ar
    52    17    15   ar
    53   144   141   ar
    54    67    68    2
    55    67    66    1
    56   134   135    1
    57    46    47    1
    58    11    12    2
    59    14    15    1
    60    15    16   ar
    61    65    66    1
    62   147   145   ar
    63   135   138    1
    64   135   136    1
    65    66    69    1
    66    47    49   ar
    67    47    48   ar
    68   141   139   ar
    69   141   143   ar
    70    49    51   ar
    71   138   139    1
    72   136   137    2
    73    48    50   ar
    74     1     2    1
    75   100    99    1
    76   145   143   ar
    77   139   140   ar
    78     3     2    1
    79     3     4    2
    80    51    50   ar
    81    98    99   ar
    82    98    96   ar
    83   143   142   ar
    84    69    70    1
    85    99    97   ar
    86    89    90    1
    87     2     5    1
    88    96    94   ar
    89    97    95   ar
    90    70    71   ar
    91    70    72   ar
    92   140   142   ar
    93    71    73   ar
    94    94    95   ar
    95    94    93    1
    96    90    93    1
    97    90    91    1
    98     5     6    1
    99    30    28   ar
   100    30    31   ar
   101    72    75   ar
   102    72    74   ar
   103    28    25   ar
   104    31    29   ar
   105    75    77   ar
   106    73    74   ar
   107     6     8   am
   108     6     7    2
   109    91    92    2
   110    74    76   ar
   111   151   150    2
   112    25    27   ar
   113    25    23   ar
   114    29    27   ar
   115    77    78   ar
   116   152   153    1
   117   152   149    1
   118    18    19    1
   119    27    26   ar
   120    22    23    1
   121    22    19    1
   122    23    24   ar
   123   150   149    1
   124    76    78   ar
   125   153   154   ar
   126   153   155   ar
   127    19    20    1
   128   154   156   ar
   129   155   157   ar
   130    20    21    2
   131    26    24   ar
   132   149   148    1
   133   109   110   ar
   134   109   107   ar
   135   156   158   ar
   136   157   158   ar
   137   110   108   ar
   138   107   106   ar
   139   119   117   ar
   140   119   120   ar
   141   108   106   ar
   142   117   116   ar
   143   122   120   ar
   144   122   124   ar
   145   120   118   ar
   146   106   105    1
   147   116   118   ar
   148   116   115    1
   149   118   121   ar
   150   124   123   ar
   151   115   112    1
   152   105   102    1
   153   123   121   ar
   154   101   102    1
   155   114   113    2
   156   102   103    1
   157   113   112    1
   158   112   111    1
   159   103   104    2
