@<TRIPOS>MOLECULE
tmp/3amlA02.pdb
 107 102 0 0 0
SMALL
GASTEIGER

@<TRIPOS>ATOM
      1  N         31.5460   55.5540   45.4660 N.3   394  ASP394     -0.1225
      2  CA        32.6220   56.3820   46.0180 C.3   394  ASP394      0.1805
      3  C         33.5160   55.5290   46.8570 C.2   394  ASP394      0.2598
      4  O         32.9960   54.8700   47.7780 O.2   394  ASP394     -0.2718
      5  CB        32.0130   57.4890   46.8780 C.3   394  ASP394      0.1424
      6  CG        33.0570   58.1400   47.7770 C.2   394  ASP394      0.3668
      7  OD1       34.0550   58.6310   47.2680 O.co2 394  ASP394     -0.2456
      8  OD2       32.8470   58.1860   49.0290 O.co2 394  ASP394     -0.2456
      9  N         34.7990   55.4630   46.5210 N.am  395  VAL395     -0.1966
     10  CA        35.6960   54.6930   47.3190 C.3   395  VAL395      0.1727
     11  C         36.2990   55.4650   48.5020 C.2   395  VAL395      0.2617
     12  O         36.9240   54.8770   49.3580 O.2   395  VAL395     -0.2715
     13  CB        36.8840   54.0780   46.4900 C.3   395  VAL395      0.0290
     14  CG1       36.3190   53.3190   45.2670 C.3   395  VAL395      0.0023
     15  CG2       37.8170   55.0800   45.9630 C.3   395  VAL395      0.0023
     16  N         36.1080   56.7780   48.5270 N.am  396  SER396     -0.1936
     17  CA        36.8670   57.6400   49.4790 C.3   396  SER396      0.2055
     18  C         36.3080   57.6690   50.8820 C.2   396  SER396      0.2643
     19  O         36.9950   57.9750   51.8270 O.2   396  SER396     -0.2714
     20  CB        36.9690   59.1100   48.9290 C.3   396  SER396      0.2130
     21  OG        35.7240   59.7330   48.9940 O.3   396  SER396     -0.2179
     22  N         35.0300   57.3700   50.9970 N.am  397  GLY397     -0.1954
     23  CA        34.3000   57.5500   52.2320 C.3   397  GLY397      0.1869
     24  C         33.9760   58.9790   52.6330 C.2   397  GLY397      0.2309
     25  O         33.7710   59.2500   53.8360 O.2   397  GLY397     -0.2863
     26  N         25.6980   54.6700   49.4780 N.3   415  ARG415     -0.1231
     27  CA        26.9850   54.5880   48.7590 C.3   415  ARG415      0.1694
     28  C         27.3420   53.0960   48.6700 C.2   415  ARG415      0.2592
     29  O         26.7970   52.2590   49.4130 O.2   415  ARG415     -0.2718
     30  CB        28.0690   55.4290   49.4780 C.3   415  ARG415      0.0321
     31  CG        29.1260   54.7560   50.2220 C.3   415  ARG415      0.0489
     32  CD        30.2730   55.7980   50.6090 C.3   415  ARG415      0.2205
     33  NE        29.5920   56.6610   51.6240 N.pl3 415  ARG415     -0.0865
     34  CZ        30.0260   57.8740   51.9820 C.cat 415  ARG415      0.5346
     35  NH1       31.0440   58.3860   51.3360 N.pl3 415  ARG415      0.1354
     36  NH2       29.3500   58.5790   52.9250 N.pl3 415  ARG415      0.1354
     37  N         28.2330   52.7410   47.7670 N.am  416  LEU416     -0.1966
     38  CA        28.5960   51.3280   47.6800 C.3   416  LEU416      0.1728
     39  C         29.7410   50.9920   48.6550 C.2   416  LEU416      0.2616
     40  O         30.6200   51.7990   48.7900 O.2   416  LEU416     -0.2715
     41  CB        28.9980   51.0580   46.2530 C.3   416  LEU416      0.0311
     42  CG        28.0040   51.1050   45.1530 C.3   416  LEU416      0.0022
     43  CD1       28.7960   50.6780   43.8680 C.3   416  LEU416      0.0001
     44  CD2       26.9580   50.0290   45.4110 C.3   416  LEU416      0.0001
     45  N         29.7200   49.8070   49.3450 N.am  417  ALA417     -0.1963
     46  CA        30.8320   49.4840   50.1710 C.3   417  ALA417      0.1728
     47  C         32.0120   48.8750   49.3620 C.2   417  ALA417      0.2616
     48  O         32.3020   47.6440   49.4600 O.2   417  ALA417     -0.2715
     49  CB        30.3400   48.4930   51.2340 C.3   417  ALA417      0.0334
     50  N         32.7220   49.7390   48.6470 N.am  418  MET418     -0.1963
     51  CA        33.7600   49.3730   47.7650 C.3   418  MET418      0.1736
     52  C         35.0170   48.6100   48.2500 C.2   418  MET418      0.2616
     53  O         35.5680   47.9570   47.3960 O.2   418  MET418     -0.2715
     54  CB        34.1220   50.6070   46.9330 C.3   418  MET418      0.0427
     55  CG        32.7930   51.0730   46.1600 C.3   418  MET418      0.0599
     56  SD        33.2340   52.3580   44.9900 S.3   418  MET418     -0.1393
     57  CE        33.9130   51.3290   43.6560 C.3   418  MET418      0.0692
     58  N         35.3310   48.5860   49.5750 N.am  419  ALA419     -0.1977
     59  CA        36.4390   47.9730   50.2730 C.3   419  ALA419      0.1597
     60  C         36.2060   46.4580   50.6210 C.2   419  ALA419      0.2287
     61  O         37.1360   45.6840   50.8260 O.2   419  ALA419     -0.2864
     62  CB        36.6960   48.7240   51.5860 C.3   419  ALA419      0.0319
     63  N         33.1630   48.6120   59.3450 N.3   447  ASN447     -0.1225
     64  CA        33.8780   49.9180   59.2800 C.3   447  ASN447      0.1785
     65  C         33.1520   50.8750   58.3740 C.2   447  ASN447      0.2597
     66  O         33.4860   50.9700   57.1380 O.2   447  ASN447     -0.2718
     67  CB        35.2800   49.7250   58.6700 C.3   447  ASN447      0.1169
     68  CG        36.0670   51.0200   58.6750 C.2   447  ASN447      0.2627
     69  OD1       35.7610   51.9060   59.4750 O.2   447  ASN447     -0.2716
     70  ND2       37.0640   51.1370   57.8030 N.am  447  ASN447     -0.0877
     71  N         32.1100   51.5380   58.8810 N.am  448  ARG448     -0.1966
     72  CA        31.3710   52.4660   58.0660 C.3   448  ARG448      0.1729
     73  C         30.7800   53.5040   58.9810 C.2   448  ARG448      0.2616
     74  O         30.7060   53.2920   60.2230 O.2   448  ARG448     -0.2715
     75  CB        30.2560   51.8010   57.2910 C.3   448  ARG448      0.0348
     76  CG        29.2900   50.9460   58.1310 C.3   448  ARG448      0.0492
     77  CD        28.1860   50.3000   57.2020 C.3   448  ARG448      0.2205
     78  NE        27.1150   49.6680   57.9750 N.pl3 448  ARG448     -0.0865
     79  CZ        27.1650   48.4000   58.3820 C.cat 448  ARG448      0.5346
     80  NH1       28.2390   47.6480   58.1160 N.pl3 448  ARG448      0.1354
     81  NH2       26.1450   47.8520   58.9850 N.pl3 448  ARG448      0.1354
     82  N         30.3840   54.6010   58.3510 N.am  449  ARG449     -0.1977
     83  CA        29.5530   55.6360   58.9970 C.3   449  ARG449      0.1597
     84  C         28.1270   55.1280   59.2670 C.2   449  ARG449      0.2287
     85  O         27.3930   54.7450   58.3640 O.2   449  ARG449     -0.2864
     86  CB        29.4700   56.8810   58.0940 C.3   449  ARG449      0.0334
     87  CG        30.8220   57.5790   57.8970 C.3   449  ARG449      0.0492
     88  CD        30.7260   58.8360   56.9650 C.3   449  ARG449      0.2205
     89  NE        30.0120   59.9520   57.6400 N.pl3 449  ARG449     -0.0865
     90  CZ        30.5560   60.7720   58.5510 C.cat 449  ARG449      0.5346
     91  NH1       31.8600   60.6080   58.9110 N.pl3 449  ARG449      0.1354
     92  NH2       29.8290   61.7640   59.1060 N.pl3 449  ARG449      0.1354
     93  N         24.8850   57.1320   57.8080 N.3   452  GLU452     -0.1245
     94  CA        24.7520   57.1260   56.3300 C.3   452  GLU452      0.1567
     95  C         24.6820   55.6640   55.8700 C.2   452  GLU452      0.2260
     96  O         25.1690   54.7800   56.5270 O.2   452  GLU452     -0.2867
     97  CB        25.9790   57.8480   55.7060 C.3   452  GLU452      0.0388
     98  CG        25.9430   59.4100   56.0050 C.3   452  GLU452      0.1160
     99  CD        27.1160   60.1540   55.3440 C.2   452  GLU452      0.3649
    100  OE1       27.1960   60.0830   54.0750 O.co2 452  GLU452     -0.2457
    101  OE2       27.9910   60.6360   56.1270 O.co2 452  GLU452     -0.2457
    102  N         24.7560   52.1920   53.4730 N.3   454  CYS454     -0.1235
    103  CA        25.7710   51.5310   52.7030 C.3   454  CYS454      0.1677
    104  C         25.1810   50.2960   51.9540 C.2   454  CYS454      0.2270
    105  O         24.3980   49.5630   52.5370 O.2   454  CYS454     -0.2867
    106  CB        26.8390   51.1070   53.7280 C.3   454  CYS454      0.0956
    107  SG        28.1340   50.1560   53.0840 S.3   454  CYS454     -0.0801
@<TRIPOS>BOND
     1    57    56    1
     2    43    42    1
     3    56    55    1
     4    42    44    1
     5    42    41    1
     6    14    13    1
     7     1     2    1
     8    15    13    1
     9     2     3    1
    10     2     5    1
    11    55    54    1
    12    41    38    1
    13    13    10    1
    14     9     3   am
    15     9    10    1
    16     3     4    2
    17     5     6    1
    18    54    51    1
    19     7     6   ar
    20    10    11    1
    21    53    52    2
    22    38    37    1
    23    38    39    1
    24    51    52    1
    25    51    50    1
    26    37    28   am
    27     6     8   ar
    28    52    58   am
    29    11    16   am
    30    11    12    2
    31    16    17    1
    32    50    47   am
    33    39    40    2
    34    39    45   am
    35    28    27    1
    36    28    29    2
    37    27    26    1
    38    27    30    1
    39    20    21    1
    40    20    17    1
    41    45    46    1
    42    47    48    2
    43    47    46    1
    44    30    31    1
    45    17    18    1
    46    58    59    1
    47    46    49    1
    48    31    32    1
    49    59    60    1
    50    59    62    1
    51    32    33    1
    52    60    61    2
    53    18    22   am
    54    18    19    2
    55    22    23    1
    56    35    34    1
    57    33    34    2
    58   104   105    2
    59   104   103    1
    60    34    36    1
    61    23    24    1
    62    24    25    2
    63   103   102    1
    64   103   106    1
    65   107   106    1
    66   100    99   ar
    67    99    98    1
    68    99   101   ar
    69    97    98    1
    70    97    94    1
    71    95    94    1
    72    95    96    2
    73    94    93    1
    74    88    89    1
    75    88    87    1
    76    66    65    2
    77    77    78    1
    78    77    76    1
    79    75    72    1
    80    75    76    1
    81    89    90    2
    82    70    68   am
    83    87    86    1
    84    78    79    2
    85    72    71    1
    86    72    73    1
    87    86    83    1
    88    80    79    1
    89    82    73   am
    90    82    83    1
    91    85    84    2
    92    65    71   am
    93    65    64    1
    94    79    81    1
    95    90    91    1
    96    90    92    1
    97    67    68    1
    98    67    64    1
    99    68    69    2
   100    73    74    2
   101    83    84    1
   102    64    63    1
