@<TRIPOS>MOLECULE
tmp/3ammB00.pdb
 260 258 0 0 0
SMALL
GASTEIGER

@<TRIPOS>ATOM
      1  N         39.5510    3.0110   74.2150 N.3    26  GLU26      -0.1245
      2  CA        40.5800    2.0220   74.4310 C.3    26  GLU26       0.1567
      3  C         40.2020    0.7150   73.7210 C.2    26  GLU26       0.2260
      4  O         39.1350    0.1540   73.9890 O.2    26  GLU26      -0.2867
      5  CB        40.8010    1.7490   75.9260 C.3    26  GLU26       0.0388
      6  CG        42.0940    0.8500   76.1630 C.3    26  GLU26       0.1160
      7  CD        42.2580    0.3090   77.6160 C.2    26  GLU26       0.3649
      8  OE1       41.9610    1.0700   78.5840 O.co2  26  GLU26      -0.2457
      9  OE2       42.7130   -0.8760   77.7760 O.co2  26  GLU26      -0.2457
     10  N         40.6790   -2.3290   74.1950 N.3    28  ASN28      -0.1240
     11  CA        41.1260   -3.0260   75.3820 C.3    28  ASN28       0.1653
     12  C         40.9420   -4.5460   75.3720 C.2    28  ASN28       0.2266
     13  O         39.8260   -5.0580   75.5770 O.2    28  ASN28      -0.2867
     14  CB        40.3680   -2.3810   76.5330 C.3    28  ASN28       0.1155
     15  CG        40.6360   -3.0190   77.8690 C.2    28  ASN28       0.2627
     16  OD1       41.4240   -3.9540   77.9790 O.2    28  ASN28      -0.2716
     17  ND2       39.9550   -2.5030   78.9190 N.am   28  ASN28      -0.0877
     18  N         42.5620   -6.5080   77.5210 N.3    30  TRP30      -0.1241
     19  CA        43.4190   -6.6870   78.6740 C.3    30  TRP30       0.1605
     20  C         43.7800   -8.1190   79.1450 C.2    30  TRP30       0.2264
     21  O         44.8450   -8.3120   79.7210 O.2    30  TRP30      -0.2867
     22  CB        42.8850   -5.8790   79.8950 C.3    30  TRP30       0.0550
     23  CG        41.5740   -6.4140   80.4810 C.ar   30  TRP30       0.0003
     24  CD1       40.3120   -6.1710   80.0220 C.ar   30  TRP30       0.0946
     25  CD2       41.4300   -7.3170   81.5910 C.ar   30  TRP30       0.0152
     26  NE1       39.3940   -6.8670   80.7700 N.ar   30  TRP30      -0.2442
     27  CE2       40.0520   -7.5810   81.7380 C.ar   30  TRP30       0.0810
     28  CE3       42.3360   -7.9250   82.4760 C.ar   30  TRP30       0.0012
     29  CZ2       39.5520   -8.4390   82.7260 C.ar   30  TRP30       0.0191
     30  CZ3       41.8390   -8.7830   83.4810 C.ar   30  TRP30       0.0001
     31  CH2       40.4670   -9.0360   83.5940 C.ar   30  TRP30       0.0015
     32  N         41.5620  -17.2650   85.5040 N.3    63  GLU63      -0.1231
     33  CA        40.7420  -16.9780   86.6800 C.3    63  GLU63       0.1699
     34  C         39.8690  -15.7370   86.5220 C.2    63  GLU63       0.2592
     35  O         38.7430  -15.6980   87.0480 O.2    63  GLU63      -0.2718
     36  CB        41.6440  -16.8370   87.9200 C.3    63  GLU63       0.0402
     37  CG        42.1170  -18.1820   88.4270 C.3    63  GLU63       0.1161
     38  CD        40.9320  -19.1350   88.6830 C.2    63  GLU63       0.3649
     39  OE1       40.0450  -18.7710   89.5100 O.co2  63  GLU63      -0.2457
     40  OE2       40.8830  -20.2280   88.0500 O.co2  63  GLU63      -0.2457
     41  N         40.3830  -14.7410   85.7870 N.am   64  ARG64      -0.1966
     42  CA        39.6310  -13.4900   85.5550 C.3    64  ARG64       0.1729
     43  C         38.4330  -13.7450   84.6140 C.2    64  ARG64       0.2616
     44  O         37.5440  -12.8820   84.4230 O.2    64  ARG64      -0.2715
     45  CB        40.5450  -12.4220   84.9380 C.3    64  ARG64       0.0348
     46  CG        41.8230  -12.0320   85.6930 C.3    64  ARG64       0.0492
     47  CD        41.6390  -11.6620   87.1970 C.3    64  ARG64       0.2205
     48  NE        40.5450  -10.7120   87.3950 N.pl3  64  ARG64      -0.0865
     49  CZ        40.6570   -9.3990   87.2500 C.cat  64  ARG64       0.5346
     50  NH1       41.8310   -8.8430   86.9200 N.pl3  64  ARG64       0.1354
     51  NH2       39.5700   -8.6420   87.4010 N.pl3  64  ARG64       0.1354
     52  N         38.4470  -14.9100   83.9620 N.am   65  TYR65      -0.1960
     53  CA        37.3640  -15.3700   83.0800 C.3    65  TYR65       0.1771
     54  C         37.1720  -14.6410   81.7100 C.2    65  TYR65       0.2619
     55  O         37.2520  -15.3000   80.6630 O.2    65  TYR65      -0.2715
     56  CB        36.0330  -15.3680   83.8440 C.3    65  TYR65       0.0574
     57  CG        34.9550  -16.1660   83.1520 C.ar   65  TYR65      -0.0198
     58  CD1       34.7690  -17.5200   83.4490 C.ar   65  TYR65      -0.0009
     59  CD2       34.1530  -15.5940   82.1620 C.ar   65  TYR65      -0.0009
     60  CE1       33.8080  -18.2750   82.7730 C.ar   65  TYR65       0.0417
     61  CE2       33.2020  -16.3370   81.4860 C.ar   65  TYR65       0.0417
     62  CZ        33.0360  -17.6810   81.8020 C.ar   65  TYR65       0.1957
     63  OH        32.1150  -18.4230   81.1550 O.3    65  TYR65      -0.2866
     64  N         36.9140  -13.3270   81.6990 N.am   66  VAL66      -0.1977
     65  CA        36.7140  -12.6180   80.4300 C.3    66  VAL66       0.1596
     66  C         38.0470  -12.3360   79.7290 C.2    66  VAL66       0.2287
     67  O         39.1040  -12.4230   80.3250 O.2    66  VAL66      -0.2864
     68  CB        35.9170  -11.2610   80.5900 C.3    66  VAL66       0.0276
     69  CG1       34.5000  -11.5280   81.1450 C.3    66  VAL66       0.0022
     70  CG2       36.6870  -10.2940   81.4610 C.3    66  VAL66       0.0022
     71  N         38.4610   -9.4370   77.2640 N.3    68  GLY68      -0.1210
     72  CA        38.7360   -8.0310   77.0150 C.3    68  GLY68       0.1956
     73  C         37.5060   -7.1620   77.2070 C.2    68  GLY68       0.2611
     74  O         36.4000   -7.6840   77.5370 O.2    68  GLY68      -0.2717
     75  N         37.6880   -5.8580   76.9790 N.am   69  TYR69      -0.1976
     76  CA        36.6170   -4.8950   77.1800 C.3    69  TYR69       0.1639
     77  C         36.7570   -3.6600   76.2940 C.2    69  TYR69       0.2290
     78  O         36.9880   -2.5900   76.8170 O.2    69  TYR69      -0.2864
     79  CB        36.6550   -4.4810   78.6750 C.3    69  TYR69       0.0560
     80  CG        35.6070   -3.4870   79.1860 C.ar   69  TYR69      -0.0198
     81  CD1       34.2480   -3.6550   78.9120 C.ar   69  TYR69      -0.0009
     82  CD2       35.9860   -2.4130   79.9940 C.ar   69  TYR69      -0.0009
     83  CE1       33.2480   -2.7490   79.4270 C.ar   69  TYR69       0.0417
     84  CE2       35.0220   -1.5220   80.5030 C.ar   69  TYR69       0.0417
     85  CZ        33.6530   -1.6870   80.2130 C.ar   69  TYR69       0.1957
     86  OH        32.6980   -0.7710   80.6810 O.3    69  TYR69      -0.2866
     87  N         40.7640    6.7600   83.9790 N.3    77  LYS77      -0.1245
     88  CA        40.7260    5.3070   84.2250 C.3    77  LYS77       0.1561
     89  C         42.0230    4.9900   85.0490 C.2    77  LYS77       0.2260
     90  O         43.1410    5.0920   84.5500 O.2    77  LYS77      -0.2867
     91  CB        40.7200    4.5370   82.8930 C.3    77  LYS77       0.0271
     92  CG        40.7380    3.0240   83.1300 C.3    77  LYS77       0.0035
     93  CD        40.6000    2.2570   81.7700 C.3    77  LYS77       0.0206
     94  CE        40.7400    0.7450   82.0740 C.3    77  LYS77       0.1093
     95  NZ        40.6740    0.0720   80.7510 N.3    77  LYS77      -0.1314
     96  N         43.5400    2.1850   86.1170 N.3    79  TRP79      -0.1227
     97  CA        44.4360    1.1440   85.6110 C.3    79  TRP79       0.1737
     98  C         45.3360    1.6080   84.4510 C.2    79  TRP79       0.2595
     99  O         46.3260    0.9450   84.1410 O.2    79  TRP79      -0.2718
    100  CB        43.6320   -0.0910   85.1560 C.3    79  TRP79       0.0564
    101  CG        42.7850   -0.6680   86.2530 C.ar   79  TRP79       0.0003
    102  CD1       41.4410   -0.4950   86.4400 C.ar   79  TRP79       0.0946
    103  CD2       43.2360   -1.5110   87.3060 C.ar   79  TRP79       0.0152
    104  NE1       41.0200   -1.2010   87.5620 N.ar   79  TRP79      -0.2442
    105  CE2       42.1120   -1.8350   88.1060 C.ar   79  TRP79       0.0810
    106  CE3       44.4820   -2.0300   87.6510 C.ar   79  TRP79       0.0012
    107  CZ2       42.1990   -2.6650   89.2290 C.ar   79  TRP79       0.0191
    108  CZ3       44.5730   -2.8640   88.7910 C.ar   79  TRP79       0.0001
    109  CH2       43.4370   -3.1680   89.5580 C.ar   79  TRP79       0.0015
    110  N         44.9790    2.7000   83.7830 N.am   80  GLU80      -0.1979
    111  CA        45.8160    3.1760   82.6780 C.3    80  GLU80       0.1602
    112  C         46.4700    4.5330   82.9510 C.2    80  GLU80       0.2287
    113  O         47.1620    5.0600   82.0860 O.2    80  GLU80      -0.2864
    114  CB        44.9910    3.2250   81.3660 C.3    80  GLU80       0.0415
    115  CG        44.6070    1.7850   80.8720 C.3    80  GLU80       0.1163
    116  CD        45.8480    0.9380   80.4860 C.2    80  GLU80       0.3649
    117  OE1       46.8130    1.5400   79.9440 O.co2  80  GLU80      -0.2457
    118  OE2       45.8560   -0.3220   80.7010 O.co2  80  GLU80      -0.2457
    119  N         30.7910    1.1640   83.6300 N.3   120  GLU120     -0.1245
    120  CA        31.2920    1.0030   84.9520 C.3   120  GLU120      0.1567
    121  C         32.0870    2.1840   85.4250 C.2   120  GLU120      0.2260
    122  O         32.4490    3.0330   84.6150 O.2   120  GLU120     -0.2867
    123  CB        32.1590   -0.2600   85.0260 C.3   120  GLU120      0.0388
    124  CG        33.5540   -0.1580   84.4570 C.3   120  GLU120      0.1160
    125  CD        34.4240   -1.3390   84.9040 C.2   120  GLU120      0.3649
    126  OE1       35.5410   -1.5470   84.3720 O.co2 120  GLU120     -0.2457
    127  OE2       33.9810   -2.0840   85.8080 O.co2 120  GLU120     -0.2457
    128  N         35.0990    3.2850   88.7310 N.3   122  TRP122     -0.1241
    129  CA        35.9920    2.7970   89.7760 C.3   122  TRP122      0.1605
    130  C         35.9490    3.8750   90.8900 C.2   122  TRP122      0.2264
    131  O         36.1930    5.0450   90.6010 O.2   122  TRP122     -0.2867
    132  CB        37.4270    2.6530   89.2550 C.3   122  TRP122      0.0550
    133  CG        37.5150    1.5960   88.2590 C.ar  122  TRP122      0.0003
    134  CD1       37.2990    1.7160   86.8970 C.ar  122  TRP122      0.0946
    135  CD2       37.7870    0.2120   88.5030 C.ar  122  TRP122      0.0152
    136  NE1       37.4310    0.4810   86.2850 N.ar  122  TRP122     -0.2442
    137  CE2       37.7290   -0.4540   87.2420 C.ar  122  TRP122      0.0810
    138  CE3       38.0840   -0.5350   89.6700 C.ar  122  TRP122      0.0012
    139  CZ2       37.9470   -1.8400   87.1020 C.ar  122  TRP122      0.0191
    140  CZ3       38.3050   -1.9060   89.5450 C.ar  122  TRP122      0.0001
    141  CH2       38.2330   -2.5520   88.2710 C.ar  122  TRP122      0.0015
    142  N         34.3830   -1.2300   92.4180 N.3   138  GLU138     -0.1245
    143  CA        34.1720   -1.2520   90.9640 C.3   138  GLU138      0.1567
    144  C         32.6760   -1.4430   90.8480 C.2   138  GLU138      0.2260
    145  O         32.1420   -2.4190   91.4120 O.2   138  GLU138     -0.2867
    146  CB        34.8440   -2.4740   90.3270 C.3   138  GLU138      0.0388
    147  CG        34.6620   -2.5220   88.7820 C.3   138  GLU138      0.1160
    148  CD        35.1690   -3.7910   88.1420 C.2   138  GLU138      0.3649
    149  OE1       35.0510   -3.8890   86.8670 O.co2 138  GLU138     -0.2457
    150  OE2       35.6790   -4.6860   88.8870 O.co2 138  GLU138     -0.2457
    151  N         29.5140   -1.8090   88.1360 N.3   140  MET140     -0.1245
    152  CA        29.1100   -2.0190   86.7460 C.3   140  MET140      0.1570
    153  C         27.6020   -1.9720   86.6010 C.2   140  MET140      0.2261
    154  O         26.8960   -2.2910   87.5590 O.2   140  MET140     -0.2867
    155  CB        29.5760   -3.4130   86.2720 C.3   140  MET140      0.0387
    156  CG        31.0550   -3.7060   86.4850 C.3   140  MET140      0.0595
    157  SD        31.5020   -5.1870   85.5550 S.3   140  MET140     -0.1393
    158  CE        31.6390   -4.3270   83.9420 C.3   140  MET140      0.0692
    159  N         25.0610   -3.4320   83.7260 N.3   142  TRP142     -0.1241
    160  CA        24.9570   -4.1990   82.4760 C.3   142  TRP142      0.1605
    161  C         23.5870   -4.0340   81.8340 C.2   142  TRP142      0.2264
    162  O         22.5720   -4.4660   82.4290 O.2   142  TRP142     -0.2867
    163  CB        25.1090   -5.6890   82.7570 C.3   142  TRP142      0.0550
    164  CG        26.3960   -6.1610   83.3290 C.ar  142  TRP142      0.0003
    165  CD1       27.3410   -5.4370   84.0140 C.ar  142  TRP142      0.0946
    166  CD2       26.8860   -7.5130   83.2610 C.ar  142  TRP142      0.0152
    167  NE1       28.3970   -6.2640   84.3680 N.ar  142  TRP142     -0.2442
    168  CE2       28.1440   -7.5350   83.9180 C.ar  142  TRP142      0.0810
    169  CE3       26.3700   -8.7070   82.7050 C.ar  142  TRP142      0.0012
    170  CZ2       28.9020   -8.6910   84.0370 C.ar  142  TRP142      0.0191
    171  CZ3       27.1290   -9.8750   82.8230 C.ar  142  TRP142      0.0001
    172  CH2       28.3770   -9.8540   83.4840 C.ar  142  TRP142      0.0015
    173  N         26.7150  -14.9740   79.8020 N.3   148  LEU148     -0.1231
    174  CA        27.6990  -14.4260   80.7410 C.3   148  LEU148      0.1693
    175  C         26.9570  -13.9460   81.9770 C.2   148  LEU148      0.2593
    176  O         25.8990  -13.3250   81.8760 O.2   148  LEU148     -0.2718
    177  CB        28.4490  -13.2370   80.0990 C.3   148  LEU148      0.0284
    178  CG        29.5710  -12.5650   80.8920 C.3   148  LEU148      0.0019
    179  CD1       30.7620  -13.6010   81.1320 C.3   148  LEU148      0.0001
    180  CD2       30.0810  -11.3130   80.0780 C.3   148  LEU148      0.0001
    181  N         27.5170  -14.2600   83.1360 N.am  149  THR149     -0.1940
    182  CA        26.9710  -13.8840   84.4350 C.3   149  THR149      0.2013
    183  C         28.0120  -13.0140   85.0940 C.2   149  THR149      0.2484
    184  O         29.2040  -13.1590   84.8270 O.2   149  THR149     -0.2729
    185  CB        26.7920  -15.1640   85.3130 C.3   149  THR149      0.1807
    186  OG1       25.9430  -16.1040   84.6060 O.3   149  THR149     -0.2208
    187  CG2       26.1670  -14.8650   86.6220 C.3   149  THR149      0.0379
    188  N         27.5910  -12.0970   85.9860 N.am  150  PRO150     -0.2715
    189  CA        28.5510  -11.2250   86.6760 C.3   150  PRO150      0.1536
    190  C         29.3380  -12.0590   87.6830 C.2   150  PRO150      0.2599
    191  O         28.9620  -13.1930   88.0160 O.2   150  PRO150     -0.2715
    192  CB        27.6570  -10.2010   87.4350 C.3   150  PRO150      0.0310
    193  CG        26.3490  -10.2470   86.7130 C.3   150  PRO150      0.0237
    194  CD        26.2070  -11.7410   86.3440 C.3   150  PRO150      0.0939
    195  N         30.3950  -11.4790   88.2110 N.am  151  GLY151     -0.1941
    196  CA        31.1640  -12.1760   89.2250 C.3   151  GLY151      0.2014
    197  C         30.4310  -12.2020   90.5640 C.2   151  GLY151      0.2639
    198  O         29.4470  -11.4740   90.7640 O.2   151  GLY151     -0.2714
    199  N         30.9120  -13.0370   91.4860 N.am  152  GLY152     -0.1954
    200  CA        30.3170  -13.0930   92.8120 C.3   152  GLY152      0.1869
    201  C         28.9610  -13.7470   92.8260 C.2   152  GLY152      0.2309
    202  O         28.7360  -14.6660   92.0640 O.2   152  GLY152     -0.2863
    203  N         36.7920   -9.3390   96.1210 N.3   180  TRP180     -0.1241
    204  CA        38.0670   -9.7990   95.5810 C.3   180  TRP180      0.1605
    205  C         39.1710   -8.8640   96.0850 C.2   180  TRP180      0.2264
    206  O         39.1930   -8.5140   97.2670 O.2   180  TRP180     -0.2867
    207  CB        38.0340   -9.7740   94.0580 C.3   180  TRP180      0.0550
    208  CG        36.9620  -10.6510   93.3920 C.ar  180  TRP180      0.0003
    209  CD1       36.5040  -11.8960   93.8120 C.ar  180  TRP180      0.0946
    210  CD2       36.3180  -10.4010   92.1210 C.ar  180  TRP180      0.0152
    211  NE1       35.6420  -12.4120   92.8720 N.ar  180  TRP180     -0.2442
    212  CE2       35.5100  -11.5230   91.8310 C.ar  180  TRP180      0.0810
    213  CE3       36.3530   -9.3270   91.1980 C.ar  180  TRP180      0.0012
    214  CZ2       34.7340  -11.6130   90.6490 C.ar  180  TRP180      0.0191
    215  CZ3       35.5760   -9.4120   90.0240 C.ar  180  TRP180      0.0001
    216  CH2       34.7810  -10.5480   89.7650 C.ar  180  TRP180      0.0015
    217  N         39.2640   -6.0230   95.4580 N.3   182  TRP182     -0.1241
    218  CA        38.5360   -4.7920   95.6870 C.3   182  TRP182      0.1605
    219  C         37.0640   -5.2330   95.7010 C.2   182  TRP182      0.2264
    220  O         36.7620   -6.4080   95.4530 O.2   182  TRP182     -0.2867
    221  CB        38.8200   -3.7690   94.5560 C.3   182  TRP182      0.0550
    222  CG        38.5120   -4.2570   93.1640 C.ar  182  TRP182      0.0003
    223  CD1       37.2850   -4.2790   92.5370 C.ar  182  TRP182      0.0946
    224  CD2       39.4470   -4.8340   92.2550 C.ar  182  TRP182      0.0152
    225  NE1       37.4180   -4.8440   91.2750 N.ar  182  TRP182     -0.2442
    226  CE2       38.7310   -5.1910   91.0800 C.ar  182  TRP182      0.0810
    227  CE3       40.8250   -5.0810   92.3180 C.ar  182  TRP182      0.0012
    228  CZ2       39.3460   -5.7810   89.9690 C.ar  182  TRP182      0.0191
    229  CZ3       41.4480   -5.6660   91.2240 C.ar  182  TRP182      0.0001
    230  CH2       40.6930   -6.0150   90.0450 C.ar  182  TRP182      0.0015
    231  N         33.4960   -5.7090   94.1550 N.3   184  TYR184     -0.1241
    232  CA        32.8780   -5.7210   92.8580 C.3   184  TYR184      0.1605
    233  C         31.3570   -5.7520   92.9890 C.2   184  TYR184      0.2264
    234  O         30.8050   -6.6490   93.6300 O.2   184  TYR184     -0.2867
    235  CB        33.3750   -6.9710   92.0770 C.3   184  TYR184      0.0534
    236  CG        32.6390   -7.3270   90.7660 C.ar  184  TYR184     -0.0201
    237  CD1       33.1390   -6.9360   89.5520 C.ar  184  TYR184     -0.0009
    238  CD2       31.4890   -8.1280   90.7930 C.ar  184  TYR184     -0.0009
    239  CE1       32.5250   -7.3420   88.3360 C.ar  184  TYR184      0.0417
    240  CE2       30.8560   -8.5420   89.6180 C.ar  184  TYR184      0.0417
    241  CZ        31.3980   -8.1450   88.3920 C.ar  184  TYR184      0.1957
    242  OH        30.8510   -8.6130   87.2390 O.3   184  TYR184     -0.2866
    243  N         33.0040    4.3860   82.1360 N.3   231  GLU231     -0.1245
    244  CA        33.3920    3.5350   81.0180 C.3   231  GLU231      0.1567
    245  C         32.1680    2.9000   80.3940 C.2   231  GLU231      0.2260
    246  O         31.2670    2.4990   81.1120 O.2   231  GLU231     -0.2867
    247  CB        34.3480    2.3990   81.5070 C.3   231  GLU231      0.0388
    248  CG        35.6770    2.9450   82.0140 C.3   231  GLU231      0.1160
    249  CD        36.5550    1.8460   82.6270 C.2   231  GLU231      0.3649
    250  OE1       36.5240    1.6800   83.8610 O.co2 231  GLU231     -0.2457
    251  OE2       37.2580    1.1320   81.8680 O.co2 231  GLU231     -0.2457
    252  N         32.3300   -6.3390   77.5460 N.3   235  GLU235     -0.1245
    253  CA        33.3170   -7.3350   77.9620 C.3   235  GLU235      0.1567
    254  C         32.9820   -8.5460   77.0940 C.2   235  GLU235      0.2260
    255  O         31.8290   -8.7050   76.6730 O.2   235  GLU235     -0.2867
    256  CB        33.1040   -7.7870   79.4110 C.3   235  GLU235      0.0388
    257  CG        33.2070   -6.7540   80.4350 C.3   235  GLU235      0.1160
    258  CD        33.1340   -7.3850   81.8500 C.2   235  GLU235      0.3649
    259  OE1       34.1790   -7.7960   82.3530 O.co2 235  GLU235     -0.2457
    260  OE2       32.0410   -7.4690   82.4460 O.co2 235  GLU235     -0.2457
@<TRIPOS>BOND
     1     3     4    2
     2     3     2    1
     3    10    11    1
     4     1     2    1
     5     2     5    1
     6    12    11    1
     7    12    13    2
     8    11    14    1
     9     5     6    1
    10     6     7    1
    11    77    78    2
    12    77    76    1
    13    14    15    1
    14   255   254    2
    15    75    76    1
    16    75    73   am
    17    72    73    1
    18    72    71    1
    19   254   253    1
    20    76    79    1
    21    73    74    2
    22    18    19    1
    23   252   253    1
    24     7     9   ar
    25     7     8   ar
    26    15    16    2
    27    15    17   am
    28   253   256    1
    29    19    20    1
    30    19    22    1
    31    79    80    1
    32    81    80   ar
    33    81    83   ar
    34    20    21    2
    35    80    82   ar
    36   256   257    1
    37    83    85   ar
    38    66    67    2
    39    66    65    1
    40   173   174    1
    41    22    23    1
    42   117   116   ar
    43    82    84   ar
    44    24    23   ar
    45    24    26   ar
    46   180   178    1
    47   177   174    1
    48   177   178    1
    49    85    84   ar
    50    85    86    1
    51   245   244    1
    52   245   246    2
    53    65    68    1
    54    65    64    1
    55   257   258    1
    56    23    25   ar
    57   116   118   ar
    58   116   115    1
    59    68    69    1
    60    68    70    1
    61    55    54    2
    62   174   175    1
    63    95    94    1
    64    26    27   ar
    65   115   114    1
    66   178   179    1
    67   244   247    1
    68   244   243    1
    69    63    62    1
    70   114   111    1
    71    61    62   ar
    72    61    59   ar
    73   247   248    1
    74    25    27   ar
    75    25    28   ar
    76    64    54   am
    77    54    53    1
    78    27    29   ar
    79    93    94    1
    80    93    92    1
    81    62    60   ar
    82   161   162    2
    83   161   160    1
    84   258   259   ar
    85   258   260   ar
    86   251   249   ar
    87   176   175    2
    88   175   181   am
    89   248   249    1
    90   113   112    2
    91    59    57   ar
    92    28    30   ar
    93   160   163    1
    94   160   159    1
    95   249   250   ar
    96   111   112    1
    97   111   110    1
    98   169   171   ar
    99   169   166   ar
   100    29    31   ar
   101   163   164    1
   102    60    58   ar
   103   171   172   ar
   104    91    92    1
   105    91    88    1
   106    53    56    1
   107    53    52    1
   108   181   182    1
   109    57    58   ar
   110    57    56    1
   111   166   164   ar
   112   166   168   ar
   113   164   165   ar
   114    30    31   ar
   115   172   170   ar
   116   119   120    1
   117   110    98   am
   118   168   170   ar
   119   168   167   ar
   120   158   157    1
   121    52    43   am
   122    87    88    1
   123   165   167   ar
   124    99    98    2
   125    88    89    1
   126   126   125   ar
   127    44    43    2
   128   182   183    1
   129   182   185    1
   130    98    97    1
   131   124   125    1
   132   124   123    1
   133    90    89    2
   134   186   185    1
   135    43    42    1
   136   122   121    2
   137   184   183    2
   138   125   127   ar
   139    45    42    1
   140    45    46    1
   141   120   123    1
   142   120   121    1
   143   183   188   am
   144   100    97    1
   145   100   101    1
   146   185   187    1
   147    32    33    1
   148    42    41    1
   149   157   156    1
   150    97    96    1
   151    46    47    1
   152    41    34   am
   153   188   194    1
   154   188   189    1
   155   101   102   ar
   156   101   103   ar
   157   155   156    1
   158   155   152    1
   159   136   134   ar
   160   136   137   ar
   161   194   193    1
   162   102   104   ar
   163    34    33    1
   164    34    35    2
   165   153   152    1
   166   153   154    2
   167   189   192    1
   168   189   190    1
   169    33    36    1
   170   193   192    1
   171   152   151    1
   172   149   148   ar
   173   134   133   ar
   174    50    49    1
   175   139   137   ar
   176   139   141   ar
   177    47    48    1
   178   242   241    1
   179   137   135   ar
   180    49    48    2
   181    49    51    1
   182   103   106   ar
   183   103   105   ar
   184   104   105   ar
   185   106   108   ar
   186   190   191    2
   187   190   195   am
   188    36    37    1
   189    40    38   ar
   190   105   107   ar
   191   148   147    1
   192   148   150   ar
   193   195   196    1
   194   133   135   ar
   195   133   132    1
   196   141   140   ar
   197   239   241   ar
   198   239   237   ar
   199   241   240   ar
   200    37    38    1
   201   135   138   ar
   202    38    39   ar
   203   128   129    1
   204   147   146    1
   205   108   109   ar
   206   196   197    1
   207   107   109   ar
   208   132   129    1
   209   140   138   ar
   210   237   236   ar
   211   240   238   ar
   212   216   215   ar
   213   216   214   ar
   214   129   130    1
   215   228   230   ar
   216   228   226   ar
   217   215   213   ar
   218   230   229   ar
   219   146   143    1
   220   197   198    2
   221   197   199   am
   222   131   130    2
   223   214   212   ar
   224   236   238   ar
   225   236   235    1
   226   144   143    1
   227   144   145    2
   228   143   142    1
   229   226   225   ar
   230   226   224   ar
   231   213   210   ar
   232   229   227   ar
   233   225   223   ar
   234   199   200    1
   235   212   210   ar
   236   212   211   ar
   237   202   201    2
   238   235   232    1
   239   210   208   ar
   240   224   227   ar
   241   224   222   ar
   242   223   222   ar
   243   200   201    1
   244   232   233    1
   245   232   231    1
   246   211   209   ar
   247   233   234    2
   248   222   221    1
   249   208   209   ar
   250   208   207    1
   251   207   204    1
   252   221   218    1
   253   220   219    2
   254   217   218    1
   255   204   205    1
   256   204   203    1
   257   218   219    1
   258   205   206    2
