@<TRIPOS>MOLECULE
tmp/3ampA01.pdb
 140 141 0 0 0
SMALL
GASTEIGER

@<TRIPOS>ATOM
      1  N         49.4980   -0.3600   46.8010 N.3    26  TRP26      -0.1241
      2  CA        50.5130   -0.9410   45.8990 C.3    26  TRP26       0.1605
      3  C         51.8410   -0.2230   45.7550 C.2    26  TRP26       0.2264
      4  O         52.8850   -0.8960   45.5080 O.2    26  TRP26      -0.2867
      5  CB        49.9480   -1.2020   44.4840 C.3    26  TRP26       0.0550
      6  CG        49.5980    0.0210   43.7090 C.ar   26  TRP26       0.0003
      7  CD1       48.4310    0.7490   43.7640 C.ar   26  TRP26       0.0946
      8  CD2       50.4200    0.6420   42.7370 C.ar   26  TRP26       0.0152
      9  NE1       48.4910    1.7990   42.8510 N.ar   26  TRP26      -0.2442
     10  CE2       49.7090    1.7420   42.2180 C.ar   26  TRP26       0.0810
     11  CE3       51.7100    0.3670   42.2460 C.ar   26  TRP26       0.0012
     12  CZ2       50.2470    2.5810   41.2180 C.ar   26  TRP26       0.0191
     13  CZ3       52.2340    1.2150   41.2500 C.ar   26  TRP26       0.0001
     14  CH2       51.5030    2.2920   40.7580 C.ar   26  TRP26       0.0015
     15  N         58.2790    7.3600   40.5120 N.3    59  GLU59      -0.1231
     16  CA        57.9320    7.6180   39.1020 C.3    59  GLU59       0.1699
     17  C         56.4600    7.2990   38.8600 C.2    59  GLU59       0.2592
     18  O         55.8680    7.8350   37.9200 O.2    59  GLU59      -0.2718
     19  CB        58.7660    6.7280   38.1810 C.3    59  GLU59       0.0402
     20  CG        58.7750    7.1120   36.7260 C.3    59  GLU59       0.1161
     21  CD        59.8470    6.3900   35.8990 C.2    59  GLU59       0.3649
     22  OE1       59.8210    6.5790   34.6810 O.co2  59  GLU59      -0.2457
     23  OE2       60.7020    5.6720   36.4580 O.co2  59  GLU59      -0.2457
     24  N         55.8830    6.4460   39.7010 N.am   60  ARG60      -0.1966
     25  CA        54.4700    6.0720   39.5020 C.3    60  ARG60       0.1729
     26  C         53.5080    7.0860   40.0960 C.2    60  ARG60       0.2616
     27  O         52.2720    6.9530   39.9390 O.2    60  ARG60      -0.2715
     28  CB        54.1750    4.6710   40.1030 C.3    60  ARG60       0.0348
     29  CG        55.0660    3.5240   39.5400 C.3    60  ARG60       0.0492
     30  CD        55.0960    3.4910   38.0030 C.3    60  ARG60       0.2205
     31  NE        53.7370    3.4710   37.4680 N.pl3  60  ARG60      -0.0865
     32  CZ        52.9270    2.4070   37.4980 C.cat  60  ARG60       0.5346
     33  NH1       53.3330    1.2500   38.0420 N.pl3  60  ARG60       0.1354
     34  NH2       51.7380    2.5000   36.9430 N.pl3  60  ARG60       0.1354
     35  N         54.0700    8.0170   40.8510 N.am   61  TYR61      -0.1960
     36  CA        53.3810    9.1430   41.4430 C.3    61  TYR61       0.1771
     37  C         52.4600    8.8500   42.6110 C.2    61  TYR61       0.2619
     38  O         52.7170    9.2850   43.7260 O.2    61  TYR61      -0.2715
     39  CB        52.6140    9.9050   40.3480 C.3    61  TYR61       0.0574
     40  CG        52.3130   11.3120   40.7960 C.ar   61  TYR61      -0.0198
     41  CD1       53.1710   12.3920   40.4550 C.ar   61  TYR61      -0.0009
     42  CD2       51.1880   11.5740   41.6120 C.ar   61  TYR61      -0.0009
     43  CE1       52.8940   13.7050   40.9360 C.ar   61  TYR61       0.0417
     44  CE2       50.9150   12.8840   42.0860 C.ar   61  TYR61       0.0417
     45  CZ        51.7720   13.9310   41.7390 C.ar   61  TYR61       0.1957
     46  OH        51.4990   15.2230   42.2010 O.3    61  TYR61      -0.2866
     47  N         51.3850    8.1240   42.3520 N.am   62  VAL62      -0.1977
     48  CA        50.4320    7.8360   43.4550 C.3    62  VAL62       0.1596
     49  C         50.9770    6.7540   44.3960 C.2    62  VAL62       0.2287
     50  O         51.8990    6.0270   44.0590 O.2    62  VAL62      -0.2864
     51  CB        49.0480    7.3480   42.9120 C.3    62  VAL62       0.0276
     52  CG1       48.3720    8.4850   42.1260 C.3    62  VAL62       0.0022
     53  CG2       49.1930    6.1020   42.0520 C.3    62  VAL62       0.0022
     54  N         40.5270    4.9410   32.6370 N.3   136  MET136     -0.1245
     55  CA        39.9960    5.3510   33.9440 C.3   136  MET136      0.1570
     56  C         38.8690    6.3890   33.7280 C.2   136  MET136      0.2261
     57  O         38.8460    7.0790   32.6990 O.2   136  MET136     -0.2867
     58  CB        41.0760    6.0530   34.8000 C.3   136  MET136      0.0387
     59  CG        42.3790    5.2540   34.9420 C.3   136  MET136      0.0595
     60  SD        43.3710    6.0200   36.2640 S.3   136  MET136     -0.1393
     61  CE        42.5020    5.4160   37.7140 C.3   136  MET136      0.0692
     62  N         37.1880    9.3610   36.0810 N.3   138  TRP138     -0.1241
     63  CA        37.3410   10.0390   37.3540 C.3   138  TRP138      0.1605
     64  C         36.1220   10.8910   37.6430 C.2   138  TRP138      0.2264
     65  O         35.8410   11.8380   36.8790 O.2   138  TRP138     -0.2867
     66  CB        38.5400   11.0080   37.3350 C.3   138  TRP138      0.0550
     67  CG        39.9000   10.3720   37.2520 C.ar  138  TRP138      0.0003
     68  CD1       40.2690    9.1850   36.6470 C.ar  138  TRP138      0.0946
     69  CD2       41.1220   11.0180   37.6750 C.ar  138  TRP138      0.0152
     70  NE1       41.6720    9.0690   36.6770 N.ar  138  TRP138     -0.2442
     71  CE2       42.2030   10.1760   37.3080 C.ar  138  TRP138      0.0810
     72  CE3       41.3810   12.2310   38.3290 C.ar  138  TRP138      0.0012
     73  CZ2       43.5460   10.5040   37.5860 C.ar  138  TRP138      0.0191
     74  CZ3       42.7170   12.5770   38.6380 C.ar  138  TRP138      0.0001
     75  CH2       43.7930   11.7020   38.2570 C.ar  138  TRP138      0.0015
     76  N         45.0990   16.6130   42.2830 N.3   144  LEU144     -0.1231
     77  CA        45.6230   15.5370   41.5020 C.3   144  LEU144      0.1693
     78  C         45.1210   15.6750   40.0780 C.2   144  LEU144      0.2593
     79  O         43.9300   15.8180   39.8200 O.2   144  LEU144     -0.2718
     80  CB        45.1700   14.1740   42.0630 C.3   144  LEU144      0.0284
     81  CG        45.7740   12.9220   41.4090 C.3   144  LEU144      0.0019
     82  CD1       47.3010   12.8070   41.7280 C.3   144  LEU144      0.0001
     83  CD2       44.9840   11.6710   41.9980 C.3   144  LEU144      0.0001
     84  N         46.0480   15.6170   39.1520 N.am  145  THR145     -0.1940
     85  CA        45.6540   15.6170   37.7350 C.3   145  THR145      0.2013
     86  C         45.9980   14.2150   37.1940 C.2   145  THR145      0.2484
     87  O         46.8460   13.4890   37.7620 O.2   145  THR145     -0.2729
     88  CB        46.5180   16.6200   36.9080 C.3   145  THR145      0.1807
     89  OG1       47.8380   16.0870   36.8450 O.3   145  THR145     -0.2208
     90  CG2       46.6770   17.9270   37.6670 C.3   145  THR145      0.0379
     91  N         45.3750   13.8270   36.0570 N.am  146  PRO146     -0.2715
     92  CA        45.6750   12.5080   35.4930 C.3   146  PRO146      0.1536
     93  C         47.0640   12.5460   34.9090 C.2   146  PRO146      0.2599
     94  O         47.6630   13.6570   34.7440 O.2   146  PRO146     -0.2715
     95  CB        44.6600   12.3370   34.3640 C.3   146  PRO146      0.0310
     96  CG        43.4740   13.1540   34.8150 C.3   146  PRO146      0.0237
     97  CD        44.1420   14.4050   35.4700 C.3   146  PRO146      0.0939
     98  N         47.5520   11.3490   34.5810 N.am  147  GLY147     -0.1941
     99  CA        48.8750   11.2780   33.9600 C.3   147  GLY147      0.2014
    100  C         48.8030   11.7340   32.5090 C.2   147  GLY147      0.2639
    101  O         47.7150   11.8980   31.9270 O.2   147  GLY147     -0.2714
    102  N         49.9840   11.9100   31.8910 N.am  148  GLY148     -0.1954
    103  CA        49.9860   12.3190   30.5100 C.3   148  GLY148      0.1869
    104  C         49.5670   13.7510   30.2640 C.2   148  GLY148      0.2309
    105  O         49.8780   14.6990   31.0380 O.2   148  GLY148     -0.2863
    106  N         52.9130    4.9490   28.1920 N.3   176  TRP176     -0.1241
    107  CA        53.9000    4.4670   29.1280 C.3   176  TRP176      0.1605
    108  C         54.1650    3.0340   28.7380 C.2   176  TRP176      0.2264
    109  O         54.2840    2.7650   27.5520 O.2   176  TRP176     -0.2867
    110  CB        53.3760    4.5450   30.5720 C.3   176  TRP176      0.0550
    111  CG        53.1040    5.9500   31.0570 C.ar  176  TRP176      0.0003
    112  CD1       53.8250    7.0760   30.7970 C.ar  176  TRP176      0.0946
    113  CD2       52.0600    6.3390   31.9720 C.ar  176  TRP176      0.0152
    114  NE1       53.2950    8.1580   31.5000 N.ar  176  TRP176     -0.2442
    115  CE2       52.2140    7.7230   32.2310 C.ar  176  TRP176      0.0810
    116  CE3       51.0160    5.6410   32.5990 C.ar  176  TRP176      0.0012
    117  CZ2       51.3490    8.4400   33.1020 C.ar  176  TRP176      0.0191
    118  CZ3       50.1570    6.3590   33.4690 C.ar  176  TRP176      0.0001
    119  CH2       50.3380    7.7390   33.7010 C.ar  176  TRP176      0.0015
    120  N         47.6100    4.7510   28.5890 N.3   180  TYR180     -0.1241
    121  CA        46.7850    5.1750   29.7200 C.3   180  TYR180      0.1605
    122  C         45.8090    6.2150   29.2150 C.2   180  TYR180      0.2264
    123  O         46.2350    7.2130   28.6000 O.2   180  TYR180     -0.2867
    124  CB        47.7040    5.7860   30.7960 C.3   180  TYR180      0.0534
    125  CG        47.0490    6.6530   31.8880 C.ar  180  TYR180     -0.0201
    126  CD1       46.7420    6.0850   33.1450 C.ar  180  TYR180     -0.0009
    127  CD2       46.8540    8.0240   31.7090 C.ar  180  TYR180     -0.0009
    128  CE1       46.2910    6.8730   34.2230 C.ar  180  TYR180      0.0417
    129  CE2       46.3460    8.8440   32.7960 C.ar  180  TYR180      0.0417
    130  CZ        46.0970    8.2290   34.0370 C.ar  180  TYR180      0.1957
    131  OH        45.7150    8.9920   35.0940 O.3   180  TYR180     -0.2866
    132  N         42.4130    6.6100   44.1530 N.3   231  GLU231     -0.1245
    133  CA        43.8640    6.6510   44.1590 C.3   231  GLU231      0.1567
    134  C         44.1940    7.7880   45.1150 C.2   231  GLU231      0.2260
    135  O         43.4140    8.7340   45.2580 O.2   231  GLU231     -0.2867
    136  CB        44.4130    7.0840   42.8070 C.3   231  GLU231      0.0388
    137  CG        44.1000    6.0870   41.7220 C.3   231  GLU231      0.1160
    138  CD        44.9130    6.4270   40.4420 C.2   231  GLU231      0.3649
    139  OE1       44.4710    7.3120   39.7040 O.co2 231  GLU231     -0.2457
    140  OE2       46.0010    5.8280   40.2190 O.co2 231  GLU231     -0.2457
@<TRIPOS>BOND
     1   109   108    2
     2   106   107    1
     3   120   121    1
     4   123   122    2
     5   108   107    1
     6   107   110    1
     7   122   121    1
     8   121   124    1
     9   104   103    1
    10   104   105    2
    11   103   102    1
    12   110   111    1
    13   124   125    1
    14   112   111   ar
    15   112   114   ar
    16   111   113   ar
    17   114   115   ar
    18   127   125   ar
    19   127   129   ar
    20   125   126   ar
    21   102   100   am
    22   101   100    2
    23   113   115   ar
    24   113   116   ar
    25   115   117   ar
    26   100    99    1
    27   116   118   ar
    28    54    55    1
    29    57    56    2
    30   129   130   ar
    31   117   119   ar
    32   126   128   ar
    33   118   119   ar
    34    56    55    1
    35    55    58    1
    36    99    98    1
    37   130   128   ar
    38   130   131    1
    39    95    96    1
    40    95    92    1
    41    98    93   am
    42    22    21   ar
    43    94    93    2
    44    58    59    1
    45    96    97    1
    46    93    92    1
    47    59    60    1
    48    97    91    1
    49    92    91    1
    50    21    23   ar
    51    21    20    1
    52    91    86   am
    53    62    63    1
    54    60    61    1
    55    68    70   ar
    56    68    67   ar
    57    70    71   ar
    58    20    19    1
    59    89    88    1
    60    65    64    2
    61    88    90    1
    62    88    85    1
    63    34    32    1
    64    86    85    1
    65    86    87    2
    66    67    66    1
    67    67    69   ar
    68    71    73   ar
    69    71    69   ar
    70    66    63    1
    71    63    64    1
    72    31    32    2
    73    31    30    1
    74    32    33    1
    75    73    75   ar
    76    69    72   ar
    77    85    84    1
    78    18    17    2
    79    30    29    1
    80    19    16    1
    81    75    74   ar
    82    72    74   ar
    83    17    16    1
    84    17    24   am
    85    16    15    1
    86    84    78   am
    87    25    24    1
    88    25    26    1
    89    25    28    1
    90    29    28    1
    91   139   138   ar
    92    79    78    2
    93    27    26    2
    94    78    77    1
    95    26    35   am
    96   140   138   ar
    97    39    40    1
    98    39    36    1
    99   138   137    1
   100    41    40   ar
   101    41    43   ar
   102    14    12   ar
   103    14    13   ar
   104    40    42   ar
   105    35    36    1
   106    43    45   ar
   107    12    10   ar
   108    13    11   ar
   109    81    82    1
   110    81    83    1
   111    81    80    1
   112    36    37    1
   113    77    80    1
   114    77    76    1
   115    42    44   ar
   116   137   136    1
   117    45    44   ar
   118    45    46    1
   119    53    51    1
   120    52    51    1
   121    10     8   ar
   122    10     9   ar
   123    11     8   ar
   124    47    37   am
   125    47    48    1
   126    37    38    2
   127     8     6   ar
   128   136   133    1
   129     9     7   ar
   130    51    48    1
   131    48    49    1
   132     6     7   ar
   133     6     5    1
   134    50    49    2
   135   132   133    1
   136   133   134    1
   137     5     2    1
   138   134   135    2
   139     4     3    2
   140     3     2    1
   141     2     1    1
