@<TRIPOS>MOLECULE
tmp/3ampA00.pdb
 201 195 0 0 0
SMALL
GASTEIGER

@<TRIPOS>ATOM
      1  N         40.0310   -4.8800   47.6420 N.3    22  GLU22      -0.1245
      2  CA        41.4800   -4.8910   47.8560 C.3    22  GLU22       0.1567
      3  C         41.9230   -3.6750   48.6180 C.2    22  GLU22       0.2260
      4  O         41.6850   -2.5290   48.1930 O.2    22  GLU22      -0.2867
      5  CB        42.2430   -4.9480   46.5240 C.3    22  GLU22       0.0388
      6  CG        43.7530   -5.2550   46.7830 C.3    22  GLU22       0.1160
      7  CD        44.6730   -5.0710   45.5330 C.2    22  GLU22       0.3649
      8  OE1       44.2040   -5.3220   44.3930 O.co2  22  GLU22      -0.2457
      9  OE2       45.8670   -4.6760   45.7570 O.co2  22  GLU22      -0.2457
     10  N         44.3900   -1.8470   48.8660 N.3    24  ASN24      -0.1240
     11  CA        45.5020   -1.7350   47.8970 C.3    24  ASN24       0.1653
     12  C         46.4480   -0.5540   48.1640 C.2    24  ASN24       0.2266
     13  O         46.1090    0.5790   47.8740 O.2    24  ASN24      -0.2867
     14  CB        44.8340   -1.5520   46.5260 C.3    24  ASN24       0.1155
     15  CG        45.8110   -1.4290   45.3970 C.2    24  ASN24       0.2627
     16  OD1       47.0280   -1.4250   45.6020 O.2    24  ASN24      -0.2716
     17  ND2       45.2890   -1.3940   44.1900 N.am   24  ASN24      -0.0877
     18  N         49.4980   -0.3600   46.8010 N.3    26  TRP26      -0.1241
     19  CA        50.5130   -0.9410   45.8990 C.3    26  TRP26       0.1605
     20  C         51.8410   -0.2230   45.7550 C.2    26  TRP26       0.2264
     21  O         52.8850   -0.8960   45.5080 O.2    26  TRP26      -0.2867
     22  CB        49.9480   -1.2020   44.4840 C.3    26  TRP26       0.0550
     23  CG        49.5980    0.0210   43.7090 C.ar   26  TRP26       0.0003
     24  CD1       48.4310    0.7490   43.7640 C.ar   26  TRP26       0.0946
     25  CD2       50.4200    0.6420   42.7370 C.ar   26  TRP26       0.0152
     26  NE1       48.4910    1.7990   42.8510 N.ar   26  TRP26      -0.2442
     27  CE2       49.7090    1.7420   42.2180 C.ar   26  TRP26       0.0810
     28  CE3       51.7100    0.3670   42.2460 C.ar   26  TRP26       0.0012
     29  CZ2       50.2470    2.5810   41.2180 C.ar   26  TRP26       0.0191
     30  CZ3       52.2340    1.2150   41.2500 C.ar   26  TRP26       0.0001
     31  CH2       51.5030    2.2920   40.7580 C.ar   26  TRP26       0.0015
     32  N         55.8830    6.4460   39.7010 N.3    60  ARG60      -0.1245
     33  CA        54.4700    6.0720   39.5020 C.3    60  ARG60       0.1563
     34  C         53.5080    7.0860   40.0960 C.2    60  ARG60       0.2260
     35  O         52.2720    6.9530   39.9390 O.2    60  ARG60      -0.2867
     36  CB        54.1750    4.6710   40.1030 C.3    60  ARG60       0.0307
     37  CG        55.0660    3.5240   39.5400 C.3    60  ARG60       0.0489
     38  CD        55.0960    3.4910   38.0030 C.3    60  ARG60       0.2205
     39  NE        53.7370    3.4710   37.4680 N.pl3  60  ARG60      -0.0865
     40  CZ        52.9270    2.4070   37.4980 C.cat  60  ARG60       0.5346
     41  NH1       53.3330    1.2500   38.0420 N.pl3  60  ARG60       0.1354
     42  NH2       51.7380    2.5000   36.9430 N.pl3  60  ARG60       0.1354
     43  N         51.3850    8.1240   42.3520 N.3    62  VAL62      -0.1245
     44  CA        50.4320    7.8360   43.4550 C.3    62  VAL62       0.1561
     45  C         50.9770    6.7540   44.3960 C.2    62  VAL62       0.2260
     46  O         51.8990    6.0270   44.0590 O.2    62  VAL62      -0.2867
     47  CB        49.0480    7.3480   42.9120 C.3    62  VAL62       0.0252
     48  CG1       48.3720    8.4850   42.1260 C.3    62  VAL62       0.0019
     49  CG2       49.1930    6.1020   42.0520 C.3    62  VAL62       0.0019
     50  N         48.5900    4.5630   46.3640 N.3    64  GLY64      -0.1210
     51  CA        47.7240    3.3930   46.4950 C.3    64  GLY64       0.1956
     52  C         46.3840    3.6200   45.8010 C.2    64  GLY64       0.2611
     53  O         46.0960    4.6810   45.2680 O.2    64  GLY64      -0.2717
     54  N         45.5520    2.6010   45.9070 N.am   65  TYR65      -0.1976
     55  CA        44.2280    2.6330   45.2710 C.3    65  TYR65       0.1639
     56  C         43.2620    1.6590   45.9850 C.2    65  TYR65       0.2290
     57  O         42.8400    0.6750   45.3870 O.2    65  TYR65      -0.2864
     58  CB        44.3860    2.2350   43.7850 C.3    65  TYR65       0.0560
     59  CG        43.1170    2.2250   42.9370 C.ar   65  TYR65      -0.0198
     60  CD1       42.2410    3.3140   42.9410 C.ar   65  TYR65      -0.0009
     61  CD2       42.8630    1.1550   42.0710 C.ar   65  TYR65      -0.0009
     62  CE1       41.1100    3.3390   42.0760 C.ar   65  TYR65       0.0417
     63  CE2       41.7290    1.1760   41.1900 C.ar   65  TYR65       0.0417
     64  CZ        40.8880    2.2680   41.2230 C.ar   65  TYR65       0.1957
     65  OH        39.8320    2.2340   40.3420 O.3    65  TYR65      -0.2866
     66  N         40.1280   -0.2090   46.8590 N.3    67  GLU67      -0.1245
     67  CA        39.1060   -0.3880   45.8460 C.3    67  GLU67       0.1567
     68  C         38.3260   -1.6870   45.9790 C.2    67  GLU67       0.2260
     69  O         38.6590   -2.5580   46.8260 O.2    67  GLU67      -0.2867
     70  CB        39.8540   -0.5070   44.4740 C.3    67  GLU67       0.0388
     71  CG        40.8440   -1.7500   44.4860 C.3    67  GLU67       0.1160
     72  CD        41.4750   -2.0580   43.1370 C.2    67  GLU67       0.3649
     73  OE1       40.7510   -2.2240   42.1190 O.co2  67  GLU67      -0.2457
     74  OE2       42.7400   -2.1760   43.0700 O.co2  67  GLU67      -0.2457
     75  N         41.3460   -8.8210   37.6370 N.3    73  LYS73      -0.1245
     76  CA        42.3630   -7.7510   37.7300 C.3    73  LYS73       0.1561
     77  C         43.6580   -8.4290   37.2930 C.2    73  LYS73       0.2260
     78  O         44.1990   -9.2420   38.0330 O.2    73  LYS73      -0.2867
     79  CB        42.4880   -7.2730   39.1970 C.3    73  LYS73       0.0271
     80  CG        43.4990   -6.1280   39.2790 C.3    73  LYS73       0.0035
     81  CD        43.5380   -5.5300   40.7280 C.3    73  LYS73       0.0206
     82  CE        44.6650   -4.4810   40.7720 C.3    73  LYS73       0.1093
     83  NZ        44.7180   -3.8820   42.1790 N.3    73  LYS73      -0.1314
     84  N         46.8690   -7.5990   37.2180 N.3    75  TRP75      -0.1227
     85  CA        48.0310   -7.5160   38.0950 C.3    75  TRP75       0.1737
     86  C         48.0050   -8.4630   39.2600 C.2    75  TRP75       0.2595
     87  O         49.0710   -8.8560   39.7600 O.2    75  TRP75      -0.2718
     88  CB        48.1650   -6.0710   38.6270 C.3    75  TRP75       0.0564
     89  CG        48.2730   -5.0920   37.4840 C.ar   75  TRP75       0.0003
     90  CD1       47.3130   -4.2420   36.9960 C.ar   75  TRP75       0.0946
     91  CD2       49.4500   -4.8470   36.7090 C.ar   75  TRP75       0.0152
     92  NE1       47.8210   -3.4810   35.9560 N.ar   75  TRP75      -0.2442
     93  CE2       49.1340   -3.8290   35.7670 C.ar   75  TRP75       0.0810
     94  CE3       50.7550   -5.3840   36.7310 C.ar   75  TRP75       0.0012
     95  CZ2       50.0780   -3.3340   34.8650 C.ar   75  TRP75       0.0191
     96  CZ3       51.6880   -4.8890   35.8390 C.ar   75  TRP75       0.0001
     97  CH2       51.3490   -3.8820   34.9290 C.ar   75  TRP75       0.0015
     98  N         46.8050   -8.8300   39.7280 N.am   76  GLU76      -0.1979
     99  CA        46.7070   -9.7720   40.8390 C.3    76  GLU76       0.1602
    100  C         46.4010  -11.1830   40.3670 C.2    76  GLU76       0.2287
    101  O         46.3100  -12.0620   41.2070 O.2    76  GLU76      -0.2864
    102  CB        45.5930   -9.3400   41.8340 C.3    76  GLU76       0.0415
    103  CG        46.0010   -8.0710   42.5630 C.3    76  GLU76       0.1163
    104  CD        47.1160   -8.3660   43.5720 C.2    76  GLU76       0.3649
    105  OE1       47.0740   -9.4900   44.1250 O.co2  76  GLU76      -0.2457
    106  OE2       48.0300   -7.4960   43.8160 O.co2  76  GLU76      -0.2457
    107  N         38.1040    2.0220   36.8270 N.3   116  GLU116     -0.1245
    108  CA        38.9760    1.7200   35.7270 C.3   116  GLU116      0.1567
    109  C         38.8700    0.3250   35.2080 C.2   116  GLU116      0.2260
    110  O         38.3340   -0.5560   35.8790 O.2   116  GLU116     -0.2867
    111  CB        40.4490    1.9960   36.0980 C.3   116  GLU116      0.0388
    112  CG        41.0670    1.0300   36.9310 C.3   116  GLU116      0.1160
    113  CD        42.6490    1.2400   37.0880 C.2   116  GLU116      0.3649
    114  OE1       43.2330    0.4140   37.7320 O.co2 116  GLU116     -0.2457
    115  OE2       43.2950    2.2100   36.6350 O.co2 116  GLU116     -0.2457
    116  N         41.1310   -2.6160   32.4130 N.3   118  TRP118     -0.1241
    117  CA        42.3750   -2.9290   31.7090 C.3   118  TRP118      0.1605
    118  C         41.9140   -3.7020   30.4720 C.2   118  TRP118      0.2264
    119  O         41.1650   -4.7060   30.6070 O.2   118  TRP118     -0.2867
    120  CB        43.2720   -3.8300   32.5920 C.3   118  TRP118      0.0550
    121  CG        43.7850   -3.0900   33.8290 C.ar  118  TRP118      0.0003
    122  CD1       43.1860   -2.9990   35.0590 C.ar  118  TRP118      0.0946
    123  CD2       44.9550   -2.2800   33.8860 C.ar  118  TRP118      0.0152
    124  NE1       43.9290   -2.1530   35.8870 N.ar  118  TRP118     -0.2442
    125  CE2       45.0200   -1.7090   35.1820 C.ar  118  TRP118      0.0810
    126  CE3       45.9660   -1.9810   32.9570 C.ar  118  TRP118      0.0012
    127  CZ2       46.0740   -0.8510   35.5810 C.ar  118  TRP118      0.0191
    128  CZ3       47.0090   -1.1400   33.3390 C.ar  118  TRP118      0.0001
    129  CH2       47.0550   -0.5810   34.6640 C.ar  118  TRP118      0.0015
    130  N         44.7940    1.0070   29.6680 N.3   134  CYS134     -0.1235
    131  CA        44.1720    1.2080   31.0150 C.3   134  CYS134      0.1677
    132  C         43.1760    2.3580   30.7360 C.2   134  CYS134      0.2270
    133  O         43.6070    3.3670   30.1620 O.2   134  CYS134     -0.2867
    134  CB        45.1930    1.7490   32.0150 C.3   134  CYS134      0.0956
    135  SG        44.3940    2.1870   33.6090 S.3   134  CYS134     -0.0801
    136  N         40.5270    4.9410   32.6370 N.3   136  MET136     -0.1245
    137  CA        39.9960    5.3510   33.9440 C.3   136  MET136      0.1570
    138  C         38.8690    6.3890   33.7280 C.2   136  MET136      0.2261
    139  O         38.8460    7.0790   32.6990 O.2   136  MET136     -0.2867
    140  CB        41.0760    6.0530   34.8000 C.3   136  MET136      0.0387
    141  CG        42.3790    5.2540   34.9420 C.3   136  MET136      0.0595
    142  SD        43.3710    6.0200   36.2640 S.3   136  MET136     -0.1393
    143  CE        42.5020    5.4160   37.7140 C.3   136  MET136      0.0692
    144  N         52.9130    4.9490   28.1920 N.3   176  TRP176     -0.1241
    145  CA        53.9000    4.4670   29.1280 C.3   176  TRP176      0.1605
    146  C         54.1650    3.0340   28.7380 C.2   176  TRP176      0.2264
    147  O         54.2840    2.7650   27.5520 O.2   176  TRP176     -0.2867
    148  CB        53.3760    4.5450   30.5720 C.3   176  TRP176      0.0550
    149  CG        53.1040    5.9500   31.0570 C.ar  176  TRP176      0.0003
    150  CD1       53.8250    7.0760   30.7970 C.ar  176  TRP176      0.0946
    151  CD2       52.0600    6.3390   31.9720 C.ar  176  TRP176      0.0152
    152  NE1       53.2950    8.1580   31.5000 N.ar  176  TRP176     -0.2442
    153  CE2       52.2140    7.7230   32.2310 C.ar  176  TRP176      0.0810
    154  CE3       51.0160    5.6410   32.5990 C.ar  176  TRP176      0.0012
    155  CZ2       51.3490    8.4400   33.1020 C.ar  176  TRP176      0.0191
    156  CZ3       50.1570    6.3590   33.4690 C.ar  176  TRP176      0.0001
    157  CH2       50.3380    7.7390   33.7010 C.ar  176  TRP176      0.0015
    158  N         52.1190    0.8340   28.8150 N.3   178  TRP178     -0.1241
    159  CA        50.8650    0.5020   28.1480 C.3   178  TRP178      0.1605
    160  C         50.2220    1.8580   27.8840 C.2   178  TRP178      0.2264
    161  O         50.7750    2.8930   28.3110 O.2   178  TRP178     -0.2867
    162  CB        49.9630   -0.3170   29.0850 C.3   178  TRP178      0.0550
    163  CG        49.8240    0.3100   30.4730 C.ar  178  TRP178      0.0003
    164  CD1       48.8730    1.2420   30.8790 C.ar  178  TRP178      0.0946
    165  CD2       50.6030    0.0160   31.6160 C.ar  178  TRP178      0.0152
    166  NE1       49.0280    1.5100   32.2160 N.ar  178  TRP178     -0.2442
    167  CE2       50.0880    0.7770   32.6860 C.ar  178  TRP178      0.0810
    168  CE3       51.6920   -0.8390   31.8550 C.ar  178  TRP178      0.0012
    169  CZ2       50.6270    0.7190   33.9880 C.ar  178  TRP178      0.0191
    170  CZ3       52.2330   -0.9070   33.1410 C.ar  178  TRP178      0.0001
    171  CH2       51.6980   -0.1280   34.2030 C.ar  178  TRP178      0.0015
    172  N         47.6100    4.7510   28.5890 N.3   180  TYR180     -0.1241
    173  CA        46.7850    5.1750   29.7200 C.3   180  TYR180      0.1605
    174  C         45.8090    6.2150   29.2150 C.2   180  TYR180      0.2264
    175  O         46.2350    7.2130   28.6000 O.2   180  TYR180     -0.2867
    176  CB        47.7040    5.7860   30.7960 C.3   180  TYR180      0.0534
    177  CG        47.0490    6.6530   31.8880 C.ar  180  TYR180     -0.0201
    178  CD1       46.7420    6.0850   33.1450 C.ar  180  TYR180     -0.0009
    179  CD2       46.8540    8.0240   31.7090 C.ar  180  TYR180     -0.0009
    180  CE1       46.2910    6.8730   34.2230 C.ar  180  TYR180      0.0417
    181  CE2       46.3460    8.8440   32.7960 C.ar  180  TYR180      0.0417
    182  CZ        46.0970    8.2290   34.0370 C.ar  180  TYR180      0.1957
    183  OH        45.7150    8.9920   35.0940 O.3   180  TYR180     -0.2866
    184  N         37.0330   -1.7370   38.0760 N.3   227  GLU227     -0.1245
    185  CA        37.4930   -1.3780   39.4430 C.3   227  GLU227      0.1567
    186  C         36.9310   -0.0260   39.8630 C.2   227  GLU227      0.2260
    187  O         36.7390    0.8810   39.0200 O.2   227  GLU227     -0.2867
    188  CB        39.0130   -1.3000   39.4850 C.3   227  GLU227      0.0388
    189  CG        39.7100   -2.5990   38.9300 C.3   227  GLU227      0.1160
    190  CD        41.2510   -2.4220   38.8820 C.2   227  GLU227      0.3649
    191  OE1       41.9460   -2.3650   39.9400 O.co2 227  GLU227     -0.2457
    192  OE2       41.7580   -2.3270   37.7460 O.co2 227  GLU227     -0.2457
    193  N         42.4130    6.6100   44.1530 N.3   231  GLU231     -0.1245
    194  CA        43.8640    6.6510   44.1590 C.3   231  GLU231      0.1567
    195  C         44.1940    7.7880   45.1150 C.2   231  GLU231      0.2260
    196  O         43.4140    8.7340   45.2580 O.2   231  GLU231     -0.2867
    197  CB        44.4130    7.0840   42.8070 C.3   231  GLU231      0.0388
    198  CG        44.1000    6.0870   41.7220 C.3   231  GLU231      0.1160
    199  CD        44.9130    6.4270   40.4420 C.2   231  GLU231      0.3649
    200  OE1       44.4710    7.3120   39.7040 O.co2 231  GLU231     -0.2457
    201  OE2       46.0010    5.8280   40.2190 O.co2 231  GLU231     -0.2457
@<TRIPOS>BOND
     1   147   146    2
     2   160   159    1
     3   160   161    2
     4   159   158    1
     5   159   162    1
     6   144   145    1
     7   172   173    1
     8   175   174    2
     9   146   145    1
    10   162   163    1
    11   145   148    1
    12   174   173    1
    13   130   131    1
    14   173   176    1
    15   133   132    2
    16   118   119    2
    17   118   117    1
    18   163   164   ar
    19   163   165   ar
    20   148   149    1
    21   132   131    1
    22   176   177    1
    23   150   149   ar
    24   150   152   ar
    25   164   166   ar
    26   131   134    1
    27   149   151   ar
    28   152   153   ar
    29   165   168   ar
    30   165   167   ar
    31   179   177   ar
    32   179   181   ar
    33   117   116    1
    34   117   120    1
    35   168   170   ar
    36   177   178   ar
    37   151   153   ar
    38   151   154   ar
    39   134   135    1
    40   166   167   ar
    41   153   155   ar
    42   120   121    1
    43   154   156   ar
    44   136   137    1
    45   167   169   ar
    46   139   138    2
    47   181   182   ar
    48   126   128   ar
    49   126   123   ar
    50   155   157   ar
    51   170   171   ar
    52   178   180   ar
    53   128   129   ar
    54   156   157   ar
    55   138   137    1
    56   121   123   ar
    57   121   122   ar
    58   123   125   ar
    59   137   140    1
    60   169   171   ar
    61   182   180   ar
    62   182   183    1
    63   129   127   ar
    64   140   141    1
    65    95    97   ar
    66    95    93   ar
    67    97    96   ar
    68   141   142    1
    69   122   124   ar
    70   125   127   ar
    71   125   124   ar
    72   109   108    1
    73   109   110    2
    74   108   111    1
    75   108   107    1
    76    93    92   ar
    77    93    91   ar
    78    96    94   ar
    79    92    90   ar
    80   111   112    1
    81   142   143    1
    82   115   113   ar
    83    91    94   ar
    84    91    89   ar
    85   112   113    1
    86    42    40    1
    87    90    89   ar
    88   113   114   ar
    89    84    85    1
    90    77    76    1
    91    77    78    2
    92    39    40    2
    93    39    38    1
    94    89    88    1
    95    40    41    1
    96    75    76    1
    97    76    79    1
    98   192   190   ar
    99    38    37    1
   100   184   185    1
   101    85    88    1
   102    85    86    1
   103   190   189    1
   104   190   191   ar
   105   189   188    1
   106   187   186    2
   107    79    80    1
   108    86    98   am
   109    86    87    2
   110    80    81    1
   111   185   188    1
   112   185   186    1
   113    33    32    1
   114    33    34    1
   115    33    36    1
   116    37    36    1
   117   200   199   ar
   118    98    99    1
   119    35    34    2
   120   201   199   ar
   121    65    64    1
   122   100    99    1
   123   100   101    2
   124   199   198    1
   125    81    82    1
   126    31    29   ar
   127    31    30   ar
   128    82    83    1
   129    99   102    1
   130    63    64   ar
   131    63    61   ar
   132    29    27   ar
   133    64    62   ar
   134    30    28   ar
   135   198   197    1
   136   102   103    1
   137    49    47    1
   138    61    59   ar
   139    62    60   ar
   140    73    72   ar
   141    48    47    1
   142    27    25   ar
   143    27    26   ar
   144    28    25   ar
   145    43    44    1
   146   103   104    1
   147    25    23   ar
   148   197   194    1
   149    26    24   ar
   150    47    44    1
   151    59    60   ar
   152    59    58    1
   153    74    72   ar
   154    72    71    1
   155    44    45    1
   156   104   106   ar
   157   104   105   ar
   158    23    24   ar
   159    23    22    1
   160    58    55    1
   161    46    45    2
   162   193   194    1
   163   194   195    1
   164    17    15   am
   165     8     7   ar
   166    70    71    1
   167    70    67    1
   168    22    19    1
   169   195   196    2
   170    53    52    2
   171    55    54    1
   172    55    56    1
   173    57    56    2
   174    15    16    2
   175    15    14    1
   176    21    20    2
   177     7     9   ar
   178     7     6    1
   179    20    19    1
   180    52    54   am
   181    52    51    1
   182    67    68    1
   183    67    66    1
   184    19    18    1
   185    68    69    2
   186    50    51    1
   187     5     6    1
   188     5     2    1
   189    14    11    1
   190     1     2    1
   191     2     3    1
   192    13    12    2
   193    11    12    1
   194    11    10    1
   195     4     3    2
