@<TRIPOS>MOLECULE
tmp/3amqC01.pdb
 136 137 0 0 0
SMALL
GASTEIGER

@<TRIPOS>ATOM
      1  N         39.2910   18.7800   11.4200 N.3    26  TRP26      -0.1241
      2  CA        38.3000   18.9300   10.3900 C.3    26  TRP26       0.1605
      3  C         36.9960   19.6850   10.7240 C.2    26  TRP26       0.2264
      4  O         36.4170   20.2410    9.7940 O.2    26  TRP26      -0.2867
      5  CB        37.9310   17.5930    9.7640 C.3    26  TRP26       0.0550
      6  CG        37.1340   16.6680   10.6610 C.ar   26  TRP26       0.0003
      7  CD1       37.6210   15.7510   11.5540 C.ar   26  TRP26       0.0946
      8  CD2       35.6970   16.5420   10.7000 C.ar   26  TRP26       0.0152
      9  NE1       36.5740   15.0530   12.1380 N.ar   26  TRP26      -0.2442
     10  CE2       35.3910   15.5200   11.6330 C.ar   26  TRP26       0.0810
     11  CE3       34.6390   17.2080   10.0350 C.ar   26  TRP26       0.0012
     12  CZ2       34.0510   15.1290   11.9280 C.ar   26  TRP26       0.0191
     13  CZ3       33.3200   16.8240   10.3190 C.ar   26  TRP26       0.0001
     14  CH2       33.0400   15.7930   11.2590 C.ar   26  TRP26       0.0015
     15  N         26.4320   20.1390   14.2570 N.3    59  GLU59      -0.1231
     16  CA        25.7300   18.8950   14.0470 C.3    59  GLU59       0.1699
     17  C         26.5930   17.6300   14.0820 C.2    59  GLU59       0.2592
     18  O         26.1640   16.5710   14.5970 O.2    59  GLU59      -0.2718
     19  CB        24.9900   18.9350   12.6980 C.3    59  GLU59       0.0402
     20  CG        23.7830   19.8610   12.6740 C.3    59  GLU59       0.1161
     21  CD        22.5420   19.2840   13.3950 C.2    59  GLU59       0.3649
     22  OE1       22.1690   18.1140   13.0870 O.co2  59  GLU59      -0.2457
     23  OE2       21.9330   20.0090   14.2540 O.co2  59  GLU59      -0.2457
     24  N         27.8200   17.7340   13.5670 N.am   60  ARG60      -0.1966
     25  CA        28.7150   16.5720   13.4970 C.3    60  ARG60       0.1729
     26  C         29.2560   16.2640   14.8850 C.2    60  ARG60       0.2616
     27  O         30.0370   15.3070   15.0790 O.2    60  ARG60      -0.2715
     28  CB        29.8710   16.8890   12.5360 C.3    60  ARG60       0.0348
     29  CG        29.4970   17.5630   11.2120 C.3    60  ARG60       0.0492
     30  CD        28.7700   16.6630   10.2480 C.3    60  ARG60       0.2205
     31  NE        29.4240   15.3780    9.9710 N.pl3  60  ARG60      -0.0865
     32  CZ        30.3960   15.1930    9.0690 C.cat  60  ARG60       0.5346
     33  NH1       30.8460   16.2130    8.3560 N.pl3  60  ARG60       0.1354
     34  NH2       30.8820   13.9750    8.8440 N.pl3  60  ARG60       0.1354
     35  N         28.8500   17.0870   15.8470 N.am   61  TYR61      -0.1960
     36  CA        29.2130   16.9150   17.2500 C.3    61  TYR61       0.1771
     37  C         30.6990   17.0100   17.5960 C.2    61  TYR61       0.2619
     38  O         31.0740   17.8650   18.4330 O.2    61  TYR61      -0.2715
     39  CB        28.6510   15.5740   17.7880 C.3    61  TYR61       0.0574
     40  CG        28.5100   15.4410   19.3140 C.ar   61  TYR61      -0.0198
     41  CD1       27.2470   15.5110   19.9430 C.ar   61  TYR61      -0.0009
     42  CD2       29.6220   15.2630   20.1140 C.ar   61  TYR61      -0.0009
     43  CE1       27.1190   15.4050   21.3340 C.ar   61  TYR61       0.0417
     44  CE2       29.5240   15.1540   21.4900 C.ar   61  TYR61       0.0417
     45  CZ        28.2690   15.2280   22.1070 C.ar   61  TYR61       0.1957
     46  OH        28.2190   15.1240   23.4880 O.3    61  TYR61      -0.2866
     47  N         31.5490   16.1600   17.0050 N.am   62  VAL62      -0.1977
     48  CA        32.9640   16.2030   17.4050 C.3    62  VAL62       0.1596
     49  C         33.6930   17.3870   16.7440 C.2    62  VAL62       0.2287
     50  O         33.1940   17.9540   15.7880 O.2    62  VAL62      -0.2864
     51  CB        33.7180   14.8840   17.0050 C.3    62  VAL62       0.0276
     52  CG1       33.1640   13.7290   17.7780 C.3    62  VAL62       0.0022
     53  CG2       33.5980   14.6740   15.4970 C.3    62  VAL62       0.0022
     54  N         34.2540    2.1930   12.4500 N.3   136  MET136     -0.1245
     55  CA        35.1780    2.5970   13.4980 C.3   136  MET136      0.1570
     56  C         35.2230    1.5370   14.6130 C.2   136  MET136      0.2261
     57  O         34.2230    0.8470   14.8680 O.2   136  MET136     -0.2867
     58  CB        34.7460    3.9160   14.1740 C.3   136  MET136      0.0387
     59  CG        34.3130    5.0060   13.1780 C.3   136  MET136      0.0595
     60  SD        33.9400    6.5490   14.1230 S.3   136  MET136     -0.1393
     61  CE        35.5650    7.0820   14.4510 C.3   136  MET136      0.0692
     62  N         36.2780    1.6900   18.5880 N.3   138  TRP138     -0.1241
     63  CA        36.6090    2.5230   19.7380 C.3   138  TRP138      0.1605
     64  C         37.1140    1.6930   20.9240 C.2   138  TRP138      0.2264
     65  O         36.3180    0.9510   21.5350 O.2   138  TRP138     -0.2867
     66  CB        35.3660    3.2850   20.2380 C.3   138  TRP138      0.0550
     67  CG        34.7470    4.2810   19.3300 C.ar  138  TRP138      0.0003
     68  CD1       34.7190    4.2820   17.9340 C.ar  138  TRP138      0.0946
     69  CD2       33.9060    5.3630   19.7460 C.ar  138  TRP138      0.0152
     70  NE1       33.9030    5.3000   17.4820 N.ar  138  TRP138     -0.2442
     71  CE2       33.3920    5.9760   18.5690 C.ar  138  TRP138      0.0810
     72  CE3       33.5300    5.8780   21.0250 C.ar  138  TRP138      0.0012
     73  CZ2       32.5150    7.0870   18.6150 C.ar  138  TRP138      0.0191
     74  CZ3       32.6530    6.9810   21.0600 C.ar  138  TRP138      0.0001
     75  CH2       32.1640    7.5640   19.8880 C.ar  138  TRP138      0.0015
     76  N         31.7040   10.4160   25.9100 N.3   144  LEU144     -0.1231
     77  CA        31.3310   10.5750   24.4990 C.3   144  LEU144      0.1693
     78  C         30.7900    9.2310   23.9940 C.2   144  LEU144      0.2593
     79  O         31.3450    8.1870   24.3320 O.2   144  LEU144     -0.2718
     80  CB        32.5930   10.9170   23.6570 C.3   144  LEU144      0.0284
     81  CG        32.3890   11.0150   22.1470 C.3   144  LEU144      0.0019
     82  CD1       31.5780   12.2330   21.8580 C.3   144  LEU144      0.0001
     83  CD2       33.7390   11.1140   21.4140 C.3   144  LEU144      0.0001
     84  N         29.7380    9.2770   23.2020 N.am  145  THR145     -0.1940
     85  CA        29.1260    8.0630   22.7010 C.3   145  THR145      0.2013
     86  C         29.0970    8.1130   21.1900 C.2   145  THR145      0.2484
     87  O         29.1060    9.2060   20.6000 O.2   145  THR145     -0.2729
     88  CB        27.6650    7.8790   23.1810 C.3   145  THR145      0.1807
     89  OG1       26.7800    8.5500   22.2920 O.3   145  THR145     -0.2208
     90  CG2       27.5060    8.3990   24.5660 C.3   145  THR145      0.0379
     91  N         29.0560    6.9270   20.5450 N.am  146  PRO146     -0.2715
     92  CA        29.0310    6.8280   19.0850 C.3   146  PRO146      0.1536
     93  C         27.8250    7.4350   18.4950 C.2   146  PRO146      0.2599
     94  O         26.8350    7.6410   19.1890 O.2   146  PRO146     -0.2715
     95  CB        29.0880    5.3230   18.8300 C.3   146  PRO146      0.0310
     96  CG        29.8640    4.8240   20.0100 C.3   146  PRO146      0.0237
     97  CD        29.2490    5.5920   21.1510 C.3   146  PRO146      0.0939
     98  N         27.8710    7.6830   17.1990 N.am  147  GLY147     -0.1955
     99  CA        26.7290    8.2520   16.5120 C.3   147  GLY147      0.1869
    100  C         25.6390    7.2000   16.2820 C.2   147  GLY147      0.2309
    101  O         25.8680    6.0050   16.5170 O.2   147  GLY147     -0.2863
    102  N         23.7680    7.9440    7.5560 N.3   176  TRP176     -0.1241
    103  CA        23.8960    9.3630    7.2280 C.3   176  TRP176      0.1605
    104  C         24.1500    9.4710    5.7320 C.2   176  TRP176      0.2264
    105  O         23.5300    8.7470    4.9590 O.2   176  TRP176     -0.2867
    106  CB        25.0290    9.9910    8.0440 C.3   176  TRP176      0.0550
    107  CG        24.8660    9.8660    9.5510 C.ar  176  TRP176      0.0003
    108  CD1       23.7000    9.9890   10.2620 C.ar  176  TRP176      0.0946
    109  CD2       25.9190    9.7630   10.5390 C.ar  176  TRP176      0.0152
    110  NE1       23.9590    9.9820   11.6170 N.ar  176  TRP176     -0.2442
    111  CE2       25.3100    9.8460   11.8180 C.ar  176  TRP176      0.0810
    112  CE3       27.3130    9.6190   10.4630 C.ar  176  TRP176      0.0012
    113  CZ2       26.0480    9.7940   13.0150 C.ar  176  TRP176      0.0191
    114  CZ3       28.0590    9.5640   11.6690 C.ar  176  TRP176      0.0001
    115  CH2       27.4190    9.6550   12.9240 C.ar  176  TRP176      0.0015
    116  N         27.4340    4.5480    8.6550 N.3   180  TYR180     -0.1241
    117  CA        28.3530    4.6570    9.7950 C.3   180  TYR180      0.1605
    118  C         28.1890    3.4970   10.7490 C.2   180  TYR180      0.2264
    119  O         27.1150    3.3010   11.3290 O.2   180  TYR180     -0.2867
    120  CB        28.0690    5.9410   10.6020 C.3   180  TYR180      0.0534
    121  CG        28.7940    6.0950   11.9300 C.ar  180  TYR180     -0.0201
    122  CD1       30.0110    6.8160   12.0280 C.ar  180  TYR180     -0.0009
    123  CD2       28.2020    5.6660   13.1320 C.ar  180  TYR180     -0.0009
    124  CE1       30.5850    7.0880   13.2840 C.ar  180  TYR180      0.0417
    125  CE2       28.7460    5.9510   14.3840 C.ar  180  TYR180      0.0417
    126  CZ        29.9310    6.6650   14.4630 C.ar  180  TYR180      0.1957
    127  OH        30.3960    6.9600   15.7240 O.3   180  TYR180     -0.2866
    128  N         39.1350   11.1100   18.3900 N.3   231  GLU231     -0.1245
    129  CA        38.1520   12.1130   18.0500 C.3   231  GLU231      0.1567
    130  C         37.9790   12.8760   19.3820 C.2   231  GLU231      0.2260
    131  O         38.0960   12.2790   20.4470 O.2   231  GLU231     -0.2867
    132  CB        36.7980   11.4900   17.7150 C.3   231  GLU231      0.0388
    133  CG        36.6720   10.7920   16.3420 C.3   231  GLU231      0.1160
    134  CD        35.2260   10.5000   16.0480 C.2   231  GLU231      0.3649
    135  OE1       34.6250   11.2150   15.2210 O.co2 231  GLU231     -0.2457
    136  OE2       34.6700    9.5510   16.6600 O.co2 231  GLU231     -0.2457
@<TRIPOS>BOND
     1   105   104    2
     2   104   103    1
     3   103   102    1
     4   103   106    1
     5   106   107    1
     6    33    32    1
     7   116   117    1
     8    34    32    1
     9    32    31    2
    10   107   108   ar
    11   107   109   ar
    12     5     2    1
    13     5     6    1
    14     4     3    2
    15   117   120    1
    16   117   118    1
    17    31    30    1
    18    11    13   ar
    19    11     8   ar
    20    30    29    1
    21   108   110   ar
    22    13    14   ar
    23     2     3    1
    24     2     1    1
    25   112   109   ar
    26   112   114   ar
    27   109   111   ar
    28   120   121    1
    29     6     8   ar
    30     6     7   ar
    31     8    10   ar
    32   118   119    2
    33    29    28    1
    34    14    12   ar
    35     7     9   ar
    36   110   111   ar
    37    10    12   ar
    38    10     9   ar
    39   114   115   ar
    40   111   113   ar
    41   121   122   ar
    42   121   123   ar
    43   122   124   ar
    44    54    55    1
    45    28    25    1
    46    20    19    1
    47    20    21    1
    48    19    16    1
    49   115   113   ar
    50    22    21   ar
    51   123   125   ar
    52    59    60    1
    53    59    58    1
    54   124   126   ar
    55    21    23   ar
    56    25    24    1
    57    25    26    1
    58    55    58    1
    59    55    56    1
    60    24    17   am
    61    16    17    1
    62    16    15    1
    63    17    18    2
    64    60    61    1
    65   125   126   ar
    66   126   127    1
    67    56    57    2
    68    26    27    2
    69    26    35   am
    70   135   134   ar
    71    53    51    1
    72    50    49    2
    73    35    36    1
    74   134   133    1
    75   134   136   ar
    76   100    99    1
    77   100   101    2
    78   133   132    1
    79    99    98    1
    80    49    48    1
    81    51    48    1
    82    51    52    1
    83    47    48    1
    84    47    37   am
    85    98    93   am
    86    36    37    1
    87    36    39    1
    88    70    68   ar
    89    70    71   ar
    90    37    38    2
    91   132   129    1
    92    39    40    1
    93    68    67   ar
    94   129   128    1
    95   129   130    1
    96    93    92    1
    97    93    94    2
    98    71    73   ar
    99    71    69   ar
   100    62    63    1
   101    73    75   ar
   102    95    92    1
   103    95    96    1
   104    92    91    1
   105    40    41   ar
   106    40    42   ar
   107    67    69   ar
   108    67    66    1
   109   130   131    2
   110    63    66    1
   111    63    64    1
   112    69    72   ar
   113    75    74   ar
   114    41    43   ar
   115    96    97    1
   116    42    44   ar
   117    91    97    1
   118    91    86   am
   119    87    86    2
   120    64    65    2
   121    72    74   ar
   122    86    85    1
   123    43    45   ar
   124    83    81    1
   125    44    45   ar
   126    82    81    1
   127    45    46    1
   128    81    80    1
   129    89    88    1
   130    85    88    1
   131    85    84    1
   132    88    90    1
   133    84    78   am
   134    80    77    1
   135    78    79    2
   136    78    77    1
   137    77    76    1
