@<TRIPOS>MOLECULE
tmp/3amtA00.pdb
 189 180 0 0 0
SMALL
GASTEIGER

@<TRIPOS>ATOM
      1  N          8.0660   90.2800   75.5780 N.3     8  ASP8       -0.1225
      2  CA         9.3780   90.5630   74.9620 C.3     8  ASP8        0.1805
      3  C          9.5910   92.0140   74.5490 C.2     8  ASP8        0.2598
      4  O          8.6420   92.7840   74.3860 O.2     8  ASP8       -0.2718
      5  CB         9.6890   89.6600   73.7560 C.3     8  ASP8        0.1424
      6  CG        11.2050   89.6120   73.4270 C.2     8  ASP8        0.3668
      7  OD1       11.5380   89.2860   72.2680 O.co2   8  ASP8       -0.2456
      8  OD2       12.0670   89.8850   74.3120 O.co2   8  ASP8       -0.2456
      9  N         10.8680   92.3450   74.3560 N.am    9  ASP9       -0.1960
     10  CA        11.3530   93.6840   74.0070 C.3     9  ASP9        0.1840
     11  C         10.7150   94.7080   74.9330 C.2     9  ASP9        0.2623
     12  O          9.6830   95.3040   74.6240 O.2     9  ASP9       -0.2715
     13  CB        11.0960   94.0200   72.5390 C.3     9  ASP9        0.1450
     14  CG        11.8770   95.2420   72.0910 C.2     9  ASP9        0.3671
     15  OD1       12.9290   95.5350   72.7180 O.co2   9  ASP9       -0.2456
     16  OD2       11.4460   95.8990   71.1160 O.co2   9  ASP9       -0.2456
     17  N         11.3560   94.9050   76.0790 N.am   10  THR10      -0.1937
     18  CA        10.8390   95.8070   77.0940 C.3    10  THR10       0.2028
     19  C         11.9970   96.5150   77.8170 C.2    10  THR10       0.2642
     20  O         11.8150   97.5010   78.5390 O.2    10  THR10      -0.2714
     21  CB        10.0180   94.9760   78.0910 C.3    10  THR10       0.1808
     22  OG1        9.2010   95.8400   78.8920 O.3    10  THR10      -0.2208
     23  CG2       10.9630   94.1330   78.9710 C.3    10  THR10       0.0379
     24  N         13.1930   95.9890   77.5940 N.am   11  ASP11      -0.1971
     25  CA        14.4180   96.5000   78.1960 C.3    11  ASP11       0.1709
     26  C         14.9850   97.7200   77.4730 C.2    11  ASP11       0.2293
     27  O         14.4170   98.2110   76.5060 O.2    11  ASP11      -0.2864
     28  CB        15.4730   95.4010   78.1680 C.3    11  ASP11       0.1436
     29  CG        15.8500   95.0100   76.7530 C.2    11  ASP11       0.3671
     30  OD1       16.9510   94.4750   76.6080 O.co2  11  ASP11      -0.2456
     31  OD2       15.0590   95.2100   75.7810 O.co2  11  ASP11      -0.2456
     32  N         15.9600   94.6340   82.8070 N.3    16  CYS16      -0.1235
     33  CA        15.8160   93.3670   82.1180 C.3    16  CYS16       0.1677
     34  C         14.3540   93.0120   81.9070 C.2    16  CYS16       0.2270
     35  O         13.4700   93.4540   82.6350 O.2    16  CYS16      -0.2867
     36  CB        16.4990   92.2220   82.8670 C.3    16  CYS16       0.0956
     37  SG        16.5560   90.7130   81.8260 S.3    16  CYS16      -0.0801
     38  N         13.2940   89.7490   81.8710 N.3    17  THR17      -0.1218
     39  CA        12.8950   88.6740   82.7750 C.3    17  THR17       0.1862
     40  C         12.4410   89.3190   84.0780 C.2    17  THR17       0.2287
     41  O         11.5400   88.8250   84.7420 O.2    17  THR17      -0.2866
     42  CB        14.0430   87.6660   83.1150 C.3    17  THR17       0.1770
     43  OG1       15.2170   88.3680   83.5420 O.3    17  THR17      -0.2211
     44  CG2       14.3590   86.7900   81.9280 C.3    17  THR17       0.0375
     45  N         15.3510   81.7160   74.2150 N.3    41  ARG41      -0.1231
     46  CA        16.2880   82.4920   73.4040 C.3    41  ARG41       0.1694
     47  C         15.9250   82.2940   71.9450 C.2    41  ARG41       0.2592
     48  O         15.6470   81.1750   71.5090 O.2    41  ARG41      -0.2718
     49  CB        17.7270   82.0160   73.6290 C.3    41  ARG41       0.0321
     50  CG        18.3170   82.3400   74.9930 C.3    41  ARG41       0.0489
     51  CD        18.5950   83.8300   75.1690 C.3    41  ARG41       0.2205
     52  NE        19.1080   84.1420   76.5020 N.pl3  41  ARG41      -0.0865
     53  CZ        19.2870   85.3740   76.9640 C.cat  41  ARG41       0.5346
     54  NH1       18.9940   86.4050   76.2000 N.pl3  41  ARG41       0.1354
     55  NH2       19.7460   85.5750   78.1880 N.pl3  41  ARG41       0.1354
     56  N         15.9340   83.3780   71.1840 N.am   42  LEU42      -0.1966
     57  CA        15.5930   83.2820   69.7800 C.3    42  LEU42       0.1728
     58  C         16.7740   83.6190   68.8930 C.2    42  LEU42       0.2616
     59  O         17.8790   83.8730   69.3760 O.2    42  LEU42      -0.2715
     60  CB        14.4360   84.2120   69.4740 C.3    42  LEU42       0.0311
     61  CG        13.3800   84.1220   70.5590 C.3    42  LEU42       0.0022
     62  CD1       12.2950   85.1450   70.3020 C.3    42  LEU42       0.0001
     63  CD2       12.8280   82.7150   70.5780 C.3    42  LEU42       0.0001
     64  N         16.5130   83.6230   67.5890 N.am   43  ASN43      -0.1972
     65  CA        17.5190   83.9020   66.5790 C.3    43  ASN43       0.1688
     66  C         18.5760   84.9120   67.0530 C.2    43  ASN43       0.2292
     67  O         18.3420   86.1260   67.0790 O.2    43  ASN43      -0.2864
     68  CB        16.8370   84.4070   65.3120 C.3    43  ASN43       0.1181
     69  CG        17.7800   84.4560   64.1450 C.2    43  ASN43       0.2629
     70  OD1       18.9670   84.7240   64.3120 O.2    43  ASN43      -0.2716
     71  ND2       17.2640   84.2010   62.9480 N.am   43  ASN43      -0.0877
     72  N         19.3660   88.5400   65.1810 N.3    46  ILE46      -0.1245
     73  CA        18.4330   89.6390   64.9890 C.3    46  ILE46       0.1561
     74  C         19.1110   90.9460   65.3970 C.2    46  ILE46       0.2260
     75  O         19.7450   91.0360   66.4450 O.2    46  ILE46      -0.2867
     76  CB        17.1220   89.4180   65.8070 C.3    46  ILE46       0.0252
     77  CG1       16.3540   88.2040   65.2590 C.3    46  ILE46       0.0019
     78  CG2       16.2340   90.6630   65.7450 C.3    46  ILE46       0.0019
     79  CD1       15.8370   88.3520   63.8170 C.3    46  ILE46       0.0001
     80  N         17.6190   93.8110   66.0610 N.3    48  TYR48      -0.1227
     81  CA        16.7850   94.5070   67.0300 C.3    48  TYR48       0.1736
     82  C         17.0670   94.0590   68.4680 C.2    48  TYR48       0.2595
     83  O         16.7250   94.7510   69.4310 O.2    48  TYR48      -0.2718
     84  CB        15.3130   94.2720   66.6880 C.3    48  TYR48       0.0548
     85  CG        15.0200   94.1480   65.2020 C.ar   48  TYR48      -0.0200
     86  CD1       14.0480   93.2510   64.7410 C.ar   48  TYR48      -0.0009
     87  CD2       15.7220   94.9030   64.2530 C.ar   48  TYR48      -0.0009
     88  CE1       13.7840   93.1000   63.3810 C.ar   48  TYR48       0.0417
     89  CE2       15.4640   94.7600   62.8820 C.ar   48  TYR48       0.0417
     90  CZ        14.4950   93.8520   62.4570 C.ar   48  TYR48       0.1957
     91  OH        14.2430   93.6730   61.1150 O.3    48  TYR48      -0.2866
     92  N         17.6870   92.8940   68.6100 N.am   49  LYS49      -0.1966
     93  CA        18.0220   92.3740   69.9290 C.3    49  LYS49       0.1728
     94  C         18.6490   93.5040   70.7420 C.2    49  LYS49       0.2617
     95  O         19.4010   94.3290   70.2070 O.2    49  LYS49      -0.2715
     96  CB        19.0290   91.2230   69.8050 C.3    49  LYS49       0.0311
     97  CG        20.3020   91.6530   69.1160 C.3    49  LYS49       0.0038
     98  CD        21.1960   90.4990   68.7520 C.3    49  LYS49       0.0206
     99  CE        21.9630   89.9800   69.9400 C.3    49  LYS49       0.1093
    100  NZ        23.0620   89.0920   69.4510 N.3    49  LYS49      -0.1314
    101  N         18.3330   93.5520   72.0320 N.am   50  THR50      -0.1937
    102  CA        18.9060   94.5780   72.8910 C.3    50  THR50       0.2028
    103  C         20.2210   94.0610   73.4680 C.2    50  THR50       0.2642
    104  O         21.0580   94.8400   73.9080 O.2    50  THR50      -0.2714
    105  CB        17.9560   94.9520   74.0220 C.3    50  THR50       0.1808
    106  OG1       17.4950   93.7550   74.6450 O.3    50  THR50      -0.2208
    107  CG2       16.7600   95.7430   73.4870 C.3    50  THR50       0.0379
    108  N         20.4010   92.7420   73.4700 N.am   51  ARG51      -0.1963
    109  CA        21.6510   92.1560   73.9450 C.3    51  ARG51       0.1729
    110  C         21.7600   90.6360   73.8790 C.2    51  ARG51       0.2617
    111  O         22.8530   90.0850   73.9900 O.2    51  ARG51      -0.2715
    112  CB        21.9670   92.6020   75.3680 C.3    51  ARG51       0.0348
    113  CG        23.4600   92.6050   75.6030 C.3    51  ARG51       0.0492
    114  CD        23.8620   92.9040   77.0210 C.3    51  ARG51       0.2205
    115  NE        25.2730   93.2740   77.0580 N.pl3  51  ARG51      -0.0865
    116  CZ        26.0220   93.2950   78.1540 C.cat  51  ARG51       0.5346
    117  NH1       25.5020   92.9550   79.3220 N.pl3  51  ARG51       0.1354
    118  NH2       27.2860   93.6810   78.0800 N.pl3  51  ARG51       0.1354
    119  N         20.6340   89.9530   73.7000 N.am   52  GLY52      -0.1940
    120  CA        20.6610   88.4990   73.6270 C.3    52  GLY52       0.2014
    121  C         19.4460   87.9050   72.9410 C.2    52  GLY52       0.2639
    122  O         19.4300   86.7270   72.5970 O.2    52  GLY52      -0.2714
    123  N         18.4290   88.7290   72.7230 N.am   53  ASN53      -0.1958
    124  CA        17.2050   88.2760   72.0880 C.3    53  ASN53       0.1819
    125  C         16.6370   87.1240   72.8920 C.2    53  ASN53       0.2621
    126  O         16.6250   85.9780   72.4540 O.2    53  ASN53      -0.2715
    127  CB        17.4630   87.8440   70.6370 C.3    53  ASN53       0.1195
    128  CG        16.1680   87.6540   69.8350 C.2    53  ASN53       0.2630
    129  OD1       15.1960   88.4010   69.9880 O.2    53  ASN53      -0.2716
    130  ND2       16.1680   86.6610   68.9590 N.am   53  ASN53      -0.0877
    131  N         16.2080   87.4540   74.1010 N.am   54  GLY54      -0.1954
    132  CA        15.5880   86.4910   74.9890 C.3    54  GLY54       0.1869
    133  C         14.1540   86.9700   75.1820 C.2    54  GLY54       0.2309
    134  O         13.8990   88.1910   75.2800 O.2    54  GLY54      -0.2863
    135  N         10.9950   81.7760   64.5940 N.3   108  ALA108     -0.1245
    136  CA        11.5520   82.9750   65.2060 C.3   108  ALA108      0.1562
    137  C         12.9140   82.6580   65.8090 C.2   108  ALA108      0.2260
    138  O         13.7240   83.5520   66.0640 O.2   108  ALA108     -0.2867
    139  CB        10.6310   83.4800   66.2890 C.3   108  ALA108      0.0290
    140  N         14.9950   81.3270   61.9510 N.3   111  ASP111     -0.1225
    141  CA        14.9030   82.2040   60.7920 C.3   111  ASP111      0.1805
    142  C         14.4960   83.6410   61.1490 C.2   111  ASP111      0.2598
    143  O         14.5550   84.0400   62.3090 O.2   111  ASP111     -0.2718
    144  CB        13.9190   81.5430   59.8070 C.3   111  ASP111      0.1424
    145  CG        13.5970   82.3980   58.5980 C.2   111  ASP111      0.3668
    146  OD1       14.5150   82.7420   57.8070 O.co2 111  ASP111     -0.2456
    147  OD2       12.3990   82.7160   58.4390 O.co2 111  ASP111     -0.2456
    148  N         14.0940   84.4180   60.1490 N.am  112  VAL112     -0.1966
    149  CA        13.6950   85.8090   60.3440 C.3   112  VAL112      0.1727
    150  C         12.2050   86.0520   60.0480 C.2   112  VAL112      0.2616
    151  O         11.6980   85.6800   58.9810 O.2   112  VAL112     -0.2715
    152  CB        14.5470   86.7270   59.4590 C.3   112  VAL112      0.0290
    153  CG1       14.0970   88.1630   59.6080 C.3   112  VAL112      0.0023
    154  CG2       16.0090   86.5770   59.8310 C.3   112  VAL112      0.0023
    155  N         11.5210   86.6990   60.9970 N.am  113  LEU113     -0.1977
    156  CA        10.0840   86.9810   60.8940 C.3   113  LEU113      0.1596
    157  C          9.7300   88.4570   60.8320 C.2   113  LEU113      0.2287
    158  O         10.5880   89.3240   60.9630 O.2   113  LEU113     -0.2864
    159  CB         9.3510   86.3610   62.0870 C.3   113  LEU113      0.0297
    160  CG         9.2500   84.8350   62.1320 C.3   113  LEU113      0.0022
    161  CD1        8.6510   84.3560   63.4370 C.3   113  LEU113      0.0001
    162  CD2        8.4030   84.3950   60.9840 C.3   113  LEU113      0.0001
    163  N          7.0590   95.1610   68.1060 N.3   136  ARG136     -0.1231
    164  CA         7.9960   94.1410   67.6520 C.3   136  ARG136      0.1694
    165  C          8.1200   93.0390   68.6900 C.2   136  ARG136      0.2592
    166  O          8.6420   91.9650   68.4140 O.2   136  ARG136     -0.2718
    167  CB         9.3530   94.7880   67.3920 C.3   136  ARG136      0.0321
    168  CG        10.4270   93.8730   66.8760 C.3   136  ARG136      0.0489
    169  CD        11.5820   94.7220   66.4050 C.3   136  ARG136      0.2205
    170  NE        11.1550   95.6070   65.3210 N.pl3 136  ARG136     -0.0865
    171  CZ        11.9170   96.5370   64.7520 C.cat 136  ARG136      0.5346
    172  NH1       13.1670   96.7210   65.1580 N.pl3 136  ARG136      0.1354
    173  NH2       11.4240   97.2870   63.7740 N.pl3 136  ARG136      0.1354
    174  N          7.6320   93.3260   69.8890 N.am  137  GLY137     -0.1957
    175  CA         7.6720   92.3530   70.9580 C.3   137  GLY137      0.1869
    176  C          6.7390   91.1850   70.7010 C.2   137  GLY137      0.2309
    177  O          7.0350   90.0610   71.0920 O.2   137  GLY137     -0.2863
    178  N          6.4590   89.3990   68.4500 N.3   139  ILE139     -0.1231
    179  CA         7.1840   88.2950   67.8500 C.3   139  ILE139      0.1692
    180  C          7.6590   87.4150   68.9960 C.2   139  ILE139      0.2592
    181  O          7.0890   86.3520   69.2550 O.2   139  ILE139     -0.2718
    182  CB         8.3900   88.7950   67.0160 C.3   139  ILE139      0.0266
    183  CG1        7.8650   89.5180   65.7680 C.3   139  ILE139      0.0019
    184  CG2        9.3000   87.6240   66.6140 C.3   139  ILE139      0.0020
    185  CD1        8.9400   90.0100   64.8210 C.3   139  ILE139      0.0001
    186  N          8.6870   87.8760   69.6970 N.am  140  GLY140     -0.1957
    187  CA         9.2110   87.1180   70.8150 C.3   140  GLY140      0.1869
    188  C          8.1510   86.5940   71.7760 C.2   140  GLY140      0.2309
    189  O          8.2870   85.4990   72.3110 O.2   140  GLY140     -0.2863
@<TRIPOS>BOND
     1   146   145   ar
     2   147   145   ar
     3   145   144    1
     4   151   150    2
     5   152   153    1
     6   152   154    1
     7   152   149    1
     8   144   141    1
     9   150   149    1
    10   150   155   am
    11   148   149    1
    12   148   142   am
    13   141   142    1
    14   141   140    1
    15   157   156    1
    16   157   158    2
    17   156   155    1
    18   156   159    1
    19   162   160    1
    20    91    90    1
    21   142   143    2
    22   159   160    1
    23   160   161    1
    24    90    89   ar
    25    90    88   ar
    26    89    87   ar
    27    71    69   am
    28    88    86   ar
    29   173   171    1
    30    79    77    1
    31    69    70    2
    32    69    68    1
    33    87    85   ar
    34   135   136    1
    35    86    85   ar
    36   171   172    1
    37   171   170    2
    38   185   183    1
    39    73    72    1
    40    73    74    1
    41    73    76    1
    42    85    84    1
    43   136   137    1
    44   136   139    1
    45    77    76    1
    46    68    65    1
    47   170   169    1
    48    74    75    2
    49    78    76    1
    50   183   182    1
    51   137   138    2
    52    80    81    1
    53   169   168    1
    54    65    66    1
    55    65    64    1
    56   184   182    1
    57    84    81    1
    58   168   167    1
    59   182   179    1
    60    81    82    1
    61    66    67    2
    62   167   164    1
    63    64    58   am
    64   164   163    1
    65   164   165    1
    66   179   178    1
    67   179   180    1
    68   166   165    2
    69    82    92   am
    70    82    83    2
    71    92    93    1
    72   165   174   am
    73    98    97    1
    74    98    99    1
    75    58    59    2
    76    58    57    1
    77   130   128   am
    78   180   181    2
    79   180   186   am
    80    97    96    1
    81   100    99    1
    82    60    57    1
    83    60    61    1
    84   186   187    1
    85    57    56    1
    86    96    93    1
    87   128   129    2
    88   128   127    1
    89   174   175    1
    90    93    94    1
    91    95    94    2
    92    62    61    1
    93    61    63    1
    94   127   124    1
    95   176   175    1
    96   176   177    2
    97    94   101   am
    98   187   188    1
    99    16    14   ar
   100    56    47   am
   101    48    47    2
   102   188   189    2
   103    47    46    1
   104   101   102    1
   105   124   123    1
   106   124   125    1
   107    14    13    1
   108    14    15   ar
   109     7     6   ar
   110   126   125    2
   111    13    10    1
   112   122   121    2
   113   123   121   am
   114   102   103    1
   115   102   105    1
   116   125   131   am
   117   121   120    1
   118    46    49    1
   119    46    45    1
   120     6     5    1
   121     6     8   ar
   122   103   108   am
   123   103   104    2
   124   108   109    1
   125   107   105    1
   126   120   119    1
   127    49    50    1
   128   119   110   am
   129     5     2    1
   130   110   109    1
   131   110   111    2
   132   109   112    1
   133    10     9    1
   134    10    11    1
   135   105   106    1
   136   131   132    1
   137     9     3   am
   138     4     3    2
   139     3     2    1
   140    12    11    2
   141    11    17   am
   142     2     1    1
   143   132   133    1
   144    50    51    1
   145    51    52    1
   146   133   134    2
   147   112   113    1
   148   113   114    1
   149    31    29   ar
   150    17    18    1
   151    54    53    1
   152    52    53    2
   153    27    26    2
   154    30    29   ar
   155    29    28    1
   156    53    55    1
   157   114   115    1
   158   115   116    2
   159    18    19    1
   160    18    21    1
   161    26    25    1
   162    24    19   am
   163    24    25    1
   164    19    20    2
   165   118   116    1
   166    21    22    1
   167    21    23    1
   168   116   117    1
   169    28    25    1
   170    37    36    1
   171    38    39    1
   172    34    33    1
   173    34    35    2
   174    44    42    1
   175    33    32    1
   176    33    36    1
   177    39    42    1
   178    39    40    1
   179    42    43    1
   180    40    41    2
