@<TRIPOS>MOLECULE
tmp/3amuA00.pdb
 153 144 0 0 0
SMALL
GASTEIGER

@<TRIPOS>ATOM
      1  N         57.0710  -23.1800   -3.2500 N.3     9  ASP9       -0.1225
      2  CA        55.7510  -22.8930   -2.6500 C.3     9  ASP9        0.1805
      3  C         55.5020  -21.4130   -2.3160 C.2     9  ASP9        0.2597
      4  O         56.4240  -20.6000   -2.2720 O.2     9  ASP9       -0.2718
      5  CB        55.4290  -23.7490   -1.3950 C.3     9  ASP9        0.1424
      6  CG        53.8960  -23.8270   -1.1100 C.2     9  ASP9        0.3668
      7  OD1       53.4880  -24.1010    0.0380 O.co2   9  ASP9       -0.2456
      8  OD2       53.0870  -23.6170   -2.0460 O.co2   9  ASP9       -0.2456
      9  N         54.2180  -21.1120   -2.0880 N.am   10  ASP10      -0.1974
     10  CA        53.7170  -19.7760   -1.7880 C.3    10  ASP10       0.1709
     11  C         54.3840  -18.7880   -2.7130 C.2    10  ASP10       0.2293
     12  O         55.4350  -18.2300   -2.4000 O.2    10  ASP10      -0.2864
     13  CB        53.9640  -19.3850   -0.3230 C.3    10  ASP10       0.1436
     14  CG        53.2960  -18.0570    0.0470 C.2    10  ASP10       0.3671
     15  OD1       52.2160  -17.7460   -0.5120 O.co2  10  ASP10      -0.2456
     16  OD2       53.8410  -17.3280    0.9060 O.co2  10  ASP10      -0.2456
     17  N         52.0010  -17.3340   -5.5220 N.3    12  ASP12      -0.1225
     18  CA        50.8940  -16.6680   -6.1870 C.3    12  ASP12       0.1805
     19  C         50.2100  -15.6380   -5.3130 C.2    12  ASP12       0.2598
     20  O         50.6560  -15.3360   -4.2070 O.2    12  ASP12      -0.2718
     21  CB        49.8680  -17.7000   -6.6810 C.3    12  ASP12       0.1424
     22  CG        49.4260  -18.7010   -5.5960 C.2    12  ASP12       0.3668
     23  OD1       49.0530  -19.8210   -6.0070 O.co2  12  ASP12      -0.2456
     24  OD2       49.4360  -18.3910   -4.3740 O.co2  12  ASP12      -0.2456
     25  N         49.1070  -15.1050   -5.8170 N.am   13  SER13      -0.1952
     26  CA        48.3780  -14.0990   -5.0850 C.3    13  SER13       0.1924
     27  C         46.8790  -14.2570   -5.2080 C.2    13  SER13       0.2314
     28  O         46.3670  -15.1100   -5.9320 O.2    13  SER13      -0.2863
     29  CB        48.7890  -12.7110   -5.5810 C.3    13  SER13       0.2116
     30  OG        47.9390  -11.6950   -5.0760 O.3    13  SER13      -0.2180
     31  N         49.2080  -15.8810   -9.6340 N.3    17  MET17      -0.1230
     32  CA        49.3630  -17.1700  -10.3200 C.3    17  MET17       0.1702
     33  C         48.8450  -18.4470   -9.6500 C.2    17  MET17       0.2592
     34  O         48.0840  -18.4210   -8.6840 O.2    17  MET17      -0.2718
     35  CB        50.8350  -17.4200  -10.6010 C.3    17  MET17       0.0401
     36  CG        51.4930  -16.3930  -11.4380 C.3    17  MET17       0.0596
     37  SD        52.7540  -17.2240  -12.3880 S.3    17  MET17      -0.1393
     38  CE        52.3580  -16.6040  -14.0510 C.3    17  MET17       0.0692
     39  N         49.2670  -19.5650  -10.2390 N.am   18  CYS18      -0.1970
     40  CA        49.0100  -20.8980   -9.7280 C.3    18  CYS18       0.1712
     41  C         50.4900  -21.2200   -9.5380 C.2    18  CYS18       0.2296
     42  O         51.2680  -21.1590  -10.4900 O.2    18  CYS18      -0.2864
     43  CB        48.3830  -21.8160  -10.7970 C.3    18  CYS18       0.0983
     44  SG        47.8750  -23.5320  -10.2150 S.3    18  CYS18      -0.0798
     45  N         50.0760  -31.8040   -1.7650 N.3    44  ARG44      -0.1231
     46  CA        49.1900  -30.9610   -0.9740 C.3    44  ARG44       0.1694
     47  C         49.5580  -31.0830    0.4820 C.2    44  ARG44       0.2592
     48  O         49.6370  -32.1920    1.0070 O.2    44  ARG44      -0.2718
     49  CB        47.7610  -31.4200   -1.1340 C.3    44  ARG44       0.0321
     50  CG        47.2240  -31.2360   -2.5080 C.3    44  ARG44       0.0489
     51  CD        47.0620  -29.7750   -2.8220 C.3    44  ARG44       0.2205
     52  NE        46.2600  -29.5950   -4.0230 N.pl3  44  ARG44      -0.0865
     53  CZ        46.1860  -28.4500   -4.6870 C.cat  44  ARG44       0.5346
     54  NH1       46.8730  -27.4000   -4.2460 N.pl3  44  ARG44       0.1354
     55  NH2       45.4450  -28.3550   -5.7900 N.pl3  44  ARG44       0.1354
     56  N         49.7810  -29.9570    1.1460 N.am   45  LEU45      -0.1966
     57  CA        50.1220  -29.9970    2.5610 C.3    45  LEU45       0.1728
     58  C         48.8830  -29.8840    3.4390 C.2    45  LEU45       0.2616
     59  O         47.7560  -29.9390    2.9490 O.2    45  LEU45      -0.2715
     60  CB        51.0920  -28.8850    2.9030 C.3    45  LEU45       0.0311
     61  CG        52.2600  -28.8900    1.9340 C.3    45  LEU45       0.0022
     62  CD1       53.3510  -28.0360    2.5270 C.3    45  LEU45       0.0001
     63  CD2       52.7770  -30.3010    1.7020 C.3    45  LEU45       0.0001
     64  N         49.1030  -29.7410    4.7440 N.am   46  ASN46      -0.1972
     65  CA        47.9990  -29.6350    5.6750 C.3    46  ASN46       0.1688
     66  C         46.9600  -28.6820    5.1130 C.2    46  ASN46       0.2292
     67  O         47.2740  -27.5460    4.7600 O.2    46  ASN46      -0.2864
     68  CB        48.4850  -29.1060    7.0000 C.3    46  ASN46       0.1181
     69  CG        47.3650  -28.9520    7.9930 C.2    46  ASN46       0.2629
     70  OD1       46.3180  -28.3820    7.6890 O.2    46  ASN46      -0.2716
     71  ND2       47.5830  -29.4590    9.2010 N.am   46  ASN46      -0.0877
     72  N         45.6100  -25.2880    7.4830 N.3    49  ILE49      -0.1231
     73  CA        46.6010  -24.2430    7.7390 C.3    49  ILE49       0.1678
     74  C         46.0810  -22.8150    7.6480 C.2    49  ILE49       0.2434
     75  O         45.3670  -22.4660    6.7080 O.2    49  ILE49      -0.2733
     76  CB        47.7870  -24.3630    6.7470 C.3    49  ILE49       0.0265
     77  CG1       48.7450  -25.4700    7.2130 C.3    49  ILE49       0.0019
     78  CG2       48.4820  -23.0080    6.5740 C.3    49  ILE49       0.0020
     79  CD1       49.1570  -25.3610    8.6720 C.3    49  ILE49       0.0001
     80  N         46.4490  -21.9710    8.6410 N.am   50  PRO50      -0.2729
     81  CA        46.0740  -20.5410    8.7530 C.3    50  PRO50       0.1401
     82  C         46.8590  -19.6180    7.7840 C.2    50  PRO50       0.2269
     83  O         46.3790  -19.2380    6.7170 O.2    50  PRO50      -0.2865
     84  CB        46.3790  -20.2090   10.2250 C.3    50  PRO50       0.0296
     85  CG        46.3090  -21.5560   10.9300 C.3    50  PRO50       0.0237
     86  CD        46.9630  -22.4840    9.9300 C.3    50  PRO50       0.0939
     87  N         46.1320  -25.3340   -0.2860 N.3    51  ASN51      -0.1225
     88  CA        47.5310  -25.1840    0.0710 C.3    51  ASN51       0.1785
     89  C         48.3710  -26.2430   -0.5760 C.2    51  ASN51       0.2597
     90  O         48.4590  -27.3640   -0.0790 O.2    51  ASN51      -0.2718
     91  CB        47.7230  -25.2670    1.5780 C.3    51  ASN51       0.1169
     92  CG        49.2010  -25.3840    1.9770 C.2    51  ASN51       0.2627
     93  OD1       50.0940  -24.8940    1.2860 O.2    51  ASN51      -0.2716
     94  ND2       49.4480  -26.0320    3.1210 N.am   51  ASN51      -0.0877
     95  N         48.9940  -25.9020   -1.6880 N.am   52  GLY52      -0.1957
     96  CA        49.8340  -26.8680   -2.3540 C.3    52  GLY52       0.1869
     97  C         51.2460  -26.3420   -2.5280 C.2    52  GLY52       0.2309
     98  O         51.4880  -25.1420   -2.3960 O.2    52  GLY52      -0.2863
     99  N         54.3850  -31.7850    7.8660 N.3   107  ALA107     -0.1245
    100  CA        53.7770  -30.5760    7.3170 C.3   107  ALA107      0.1562
    101  C         52.4990  -30.8580    6.5430 C.2   107  ALA107      0.2260
    102  O         51.9180  -29.9680    5.9250 O.2   107  ALA107     -0.2867
    103  CB        54.7550  -29.8620    6.4280 C.3   107  ALA107      0.0290
    104  N         50.2320  -31.8510   10.3700 N.3   110  ASP110     -0.1225
    105  CA        50.3320  -31.0110   11.5590 C.3   110  ASP110      0.1805
    106  C         50.6580  -29.5500   11.2020 C.2   110  ASP110      0.2598
    107  O         50.3530  -29.0930   10.1020 O.2   110  ASP110     -0.2718
    108  CB        51.3860  -31.6540   12.4870 C.3   110  ASP110      0.1424
    109  CG        51.5210  -30.9590   13.8470 C.2   110  ASP110      0.3668
    110  OD1       50.4900  -30.5720   14.4740 O.co2 110  ASP110     -0.2456
    111  OD2       52.6920  -30.8300   14.2900 O.co2 110  ASP110     -0.2456
    112  N         51.2530  -28.8110   12.1340 N.am  111  VAL111     -0.1966
    113  CA        51.5980  -27.4220   11.8850 C.3   111  VAL111      0.1727
    114  C         52.9810  -27.0920   12.4220 C.2   111  VAL111      0.2616
    115  O         53.2360  -27.1870   13.6220 O.2   111  VAL111     -0.2715
    116  CB        50.5740  -26.4940   12.5100 C.3   111  VAL111      0.0290
    117  CG1       50.9600  -25.0670   12.2860 C.3   111  VAL111      0.0023
    118  CG2       49.2420  -26.7510   11.8940 C.3   111  VAL111      0.0023
    119  N         53.8630  -26.6840   11.5090 N.am  112  LEU112     -0.1977
    120  CA        55.2590  -26.3590   11.8110 C.3   112  LEU112      0.1596
    121  C         55.5410  -24.8820   11.5850 C.2   112  LEU112      0.2287
    122  O         54.7890  -24.2000   10.8910 O.2   112  LEU112     -0.2864
    123  CB        56.1870  -27.1800   10.9010 C.3   112  LEU112      0.0297
    124  CG        55.5690  -28.2900   10.0410 C.3   112  LEU112      0.0022
    125  CD1       56.6410  -29.0460    9.2600 C.3   112  LEU112      0.0001
    126  CD2       54.8330  -29.2540   10.9590 C.3   112  LEU112      0.0001
    127  N         58.1850  -18.0120    4.0470 N.3   135  ARG135     -0.1231
    128  CA        57.4070  -19.0130    4.7520 C.3   135  ARG135      0.1694
    129  C         57.1890  -20.0990    3.7190 C.2   135  ARG135      0.2592
    130  O         56.5290  -21.1060    3.9650 O.2   135  ARG135     -0.2718
    131  CB        56.0740  -18.4230    5.2270 C.3   135  ARG135      0.0321
    132  CG        55.4090  -19.1960    6.3680 C.3   135  ARG135      0.0489
    133  CD        53.9540  -18.7790    6.5920 C.3   135  ARG135      0.2205
    134  NE        53.8160  -17.4490    7.1930 N.pl3 135  ARG135     -0.0865
    135  CZ        52.6460  -16.8440    7.4280 C.cat 135  ARG135      0.5346
    136  NH1       51.5010  -17.4470    7.1080 N.pl3 135  ARG135      0.1354
    137  NH2       52.6140  -15.6410    8.0000 N.pl3 135  ARG135      0.1354
    138  N         57.7550  -19.8950    2.5460 N.am  136  GLY136     -0.1957
    139  CA        57.6220  -20.8940    1.5150 C.3   136  GLY136      0.1869
    140  C         58.4420  -22.1100    1.8880 C.2   136  GLY136      0.2309
    141  O         57.9330  -23.2300    1.9150 O.2   136  GLY136     -0.2863
    142  N         58.7800  -23.9260    3.8890 N.3   138  ILE138     -0.1231
    143  CA        58.1250  -25.0200    4.5770 C.3   138  ILE138      0.1692
    144  C         57.6480  -25.9680    3.4830 C.2   138  ILE138      0.2592
    145  O         58.2430  -27.0200    3.2580 O.2   138  ILE138     -0.2718
    146  CB        56.9330  -24.5220    5.4320 C.3   138  ILE138      0.0266
    147  CG1       57.4700  -23.7130    6.6200 C.3   138  ILE138      0.0019
    148  CG2       56.0790  -25.7010    5.9310 C.3   138  ILE138      0.0020
    149  CD1       58.3140  -24.5190    7.6010 C.3   138  ILE138      0.0001
    150  N         56.5890  -25.5810    2.7830 N.am  139  GLY139     -0.1957
    151  CA        56.0660  -26.4090    1.7140 C.3   139  GLY139      0.1869
    152  C         57.1770  -26.8880    0.8030 C.2   139  GLY139      0.2309
    153  O         57.2290  -28.0540    0.4160 O.2   139  GLY139     -0.2863
@<TRIPOS>BOND
     1    38    37    1
     2    37    36    1
     3    36    35    1
     4    43    44    1
     5    43    40    1
     6    35    32    1
     7    42    41    2
     8    32    33    1
     9    32    31    1
    10    39    40    1
    11    39    33   am
    12    40    41    1
    13    33    34    2
    14    21    18    1
    15    21    22    1
    16    18    17    1
    17    18    19    1
    18    23    22   ar
    19    28    27    2
    20    25    19   am
    21    25    26    1
    22    55    53    1
    23    22    24   ar
    24    29    26    1
    25    29    30    1
    26    19    20    2
    27    27    26    1
    28    53    54    1
    29    53    52    2
    30    52    51    1
    31     1     2    1
    32    51    50    1
    33    11    12    2
    34    11    10    1
    35     2     3    1
    36     2     5    1
    37    97    98    2
    38    97    96    1
    39    50    49    1
    40    96    95    1
    41     3     4    2
    42     3     9   am
    43     9    10    1
    44     8     6   ar
    45    10    13    1
    46    45    46    1
    47    95    89   am
    48     5     6    1
    49    49    46    1
    50     6     7   ar
    51    46    47    1
    52    89    90    2
    53    89    88    1
    54    15    14   ar
    55    13    14    1
    56    87    88    1
    57    14    16   ar
    58    88    91    1
    59   153   152    2
    60    47    48    2
    61    47    56   am
    62   152   151    1
    63    56    57    1
    64    93    92    2
    65   139   140    1
    66   139   138    1
    67    91    92    1
    68    63    61    1
    69   151   150    1
    70   140   141    2
    71    61    62    1
    72    61    60    1
    73    92    94   am
    74   138   129   am
    75    57    60    1
    76    57    58    1
    77   150   144   am
    78    59    58    2
    79   145   144    2
    80    58    64   am
    81   144   143    1
    82   129   130    2
    83   129   128    1
    84   142   143    1
    85   127   128    1
    86   143   146    1
    87    64    65    1
    88   128   131    1
    89    67    66    2
    90    66    65    1
    91   131   132    1
    92   146   148    1
    93   146   147    1
    94    65    68    1
    95   102   101    2
    96   132   133    1
    97   103   100    1
    98   101   100    1
    99    78    76    1
   100   133   134    1
   101   147   149    1
   102    75    74    2
   103    83    82    2
   104    76    77    1
   105    76    73    1
   106    68    69    1
   107   136   135    1
   108   134   135    2
   109    77    79    1
   110   100    99    1
   111   135   137    1
   112    72    73    1
   113    74    73    1
   114    74    80   am
   115    70    69    2
   116    82    81    1
   117    69    71   am
   118    80    81    1
   119    80    86    1
   120    81    84    1
   121   125   124    1
   122    86    85    1
   123   124   123    1
   124   124   126    1
   125   107   106    2
   126    84    85    1
   127   104   105    1
   128   122   121    2
   129   123   120    1
   130   106   105    1
   131   106   112   am
   132   119   120    1
   133   119   114   am
   134   105   108    1
   135   121   120    1
   136   113   112    1
   137   113   114    1
   138   113   116    1
   139   118   116    1
   140   117   116    1
   141   114   115    2
   142   108   109    1
   143   109   111   ar
   144   109   110   ar
