@<TRIPOS>MOLECULE
tmp/3amyA00.pdb
 139 132 0 0 0
SMALL
GASTEIGER

@<TRIPOS>ATOM
      1  N         21.1910   -8.2660    4.1730 N.3    44  LEU44      -0.1245
      2  CA        19.9240   -8.6080    3.5180 C.3    44  LEU44       0.1561
      3  C         19.5680   -7.6340    2.3920 C.2    44  LEU44       0.2260
      4  O         19.6230   -6.4150    2.5690 O.2    44  LEU44      -0.2867
      5  CB        18.7790   -8.6870    4.5360 C.3    44  LEU44       0.0270
      6  CG        18.6960   -9.9220    5.4400 C.3    44  LEU44       0.0019
      7  CD1       17.7170   -9.6900    6.5800 C.3    44  LEU44       0.0001
      8  CD2       18.3110  -11.1710    4.6510 C.3    44  LEU44       0.0001
      9  N         20.6000   -3.6590    7.1750 N.3    47  VAL47      -0.1245
     10  CA        19.9730   -4.8180    7.8060 C.3    47  VAL47       0.1561
     11  C         20.7750   -6.0790    7.4930 C.2    47  VAL47       0.2260
     12  O         21.0550   -6.3710    6.3310 O.2    47  VAL47      -0.2867
     13  CB        18.4940   -4.9730    7.3750 C.3    47  VAL47       0.0252
     14  CG1       17.8460   -6.1540    8.0720 C.3    47  VAL47       0.0019
     15  CG2       17.7140   -3.7000    7.6830 C.3    47  VAL47       0.0019
     16  N         17.9210  -11.1800   12.9730 N.3    60  VAL60      -0.1245
     17  CA        18.1210  -10.1270   11.9950 C.3    60  VAL60       0.1561
     18  C         18.5180   -8.8620   12.7510 C.2    60  VAL60       0.2260
     19  O         17.7940   -8.4010   13.6340 O.2    60  VAL60      -0.2867
     20  CB        16.8520   -9.9240   11.1280 C.3    60  VAL60       0.0252
     21  CG1       16.8360   -8.5600   10.4670 C.3    60  VAL60       0.0019
     22  CG2       16.7570  -11.0260   10.0760 C.3    60  VAL60       0.0019
     23  N         19.4580   -4.8670   12.7460 N.3    62  LYS62      -0.1245
     24  CA        19.3770   -3.5940   12.0410 C.3    62  LYS62       0.1561
     25  C         20.3690   -2.6180   12.6520 C.2    62  LYS62       0.2260
     26  O         20.2410   -2.2410   13.8170 O.2    62  LYS62      -0.2867
     27  CB        17.9560   -3.0160   12.0680 C.3    62  LYS62       0.0271
     28  CG        17.8250   -1.6930   11.3130 C.3    62  LYS62       0.0035
     29  CD        16.3860   -1.2460   11.1640 C.3    62  LYS62       0.0206
     30  CE        15.9020   -0.4650   12.3750 C.3    62  LYS62       0.1093
     31  NZ        14.6510    0.2810   12.0620 N.3    62  LYS62      -0.1314
     32  N         12.0060    4.6610   18.5610 N.3    75  GLU75      -0.1245
     33  CA        11.8590    3.3170   17.9980 C.3    75  GLU75       0.1567
     34  C         12.1190    2.2160   19.0270 C.2    75  GLU75       0.2260
     35  O         11.4070    1.2120   19.0460 O.2    75  GLU75      -0.2867
     36  CB        12.7650    3.1340   16.7760 C.3    75  GLU75       0.0388
     37  CG        12.6800    1.7430   16.1480 C.3    75  GLU75       0.1160
     38  CD        13.3830    1.6300   14.8050 C.2    75  GLU75       0.3649
     39  OE1       14.2170    2.5010   14.4670 O.co2  75  GLU75      -0.2457
     40  OE2       13.0970    0.6520   14.0820 O.co2  75  GLU75      -0.2457
     41  N          9.1610   -0.4420   20.3730 N.3    79  LEU79      -0.1245
     42  CA         9.3550   -1.8830   20.1990 C.3    79  LEU79       0.1561
     43  C          9.3540   -2.6160   21.5310 C.2    79  LEU79       0.2260
     44  O          8.8520   -3.7330   21.6200 O.2    79  LEU79      -0.2867
     45  CB        10.6540   -2.1830   19.4480 C.3    79  LEU79       0.0270
     46  CG        10.7680   -1.8320   17.9630 C.3    79  LEU79       0.0019
     47  CD1       12.2310   -1.8600   17.5420 C.3    79  LEU79       0.0001
     48  CD2        9.9350   -2.7660   17.1050 C.3    79  LEU79       0.0001
     49  N          6.7660   -7.4700   15.1990 N.3    89  ILE89      -0.1245
     50  CA         8.1560   -7.9220   15.2050 C.3    89  ILE89       0.1561
     51  C          8.7660   -7.8410   16.6110 C.2    89  ILE89       0.2260
     52  O          8.6810   -6.8030   17.2750 O.2    89  ILE89      -0.2867
     53  CB         9.0190   -7.1480   14.1580 C.3    89  ILE89       0.0252
     54  CG1       10.3310   -7.8880   13.8640 C.3    89  ILE89       0.0019
     55  CG2        9.2820   -5.7060   14.5930 C.3    89  ILE89       0.0019
     56  CD1       10.1690   -9.1510   13.0420 C.3    89  ILE89       0.0001
     57  N         16.3810   -8.3300   16.0180 N.3   103  PHE103     -0.1227
     58  CA        15.0220   -8.8440   15.8920 C.3   103  PHE103      0.1736
     59  C         15.0050  -10.3520   15.7180 C.2   103  PHE103      0.2595
     60  O         15.9760  -10.9360   15.2430 O.2   103  PHE103     -0.2718
     61  CB        14.3100   -8.1970   14.6990 C.3   103  PHE103      0.0547
     62  CG        14.2560   -6.7010   14.7660 C.ar  103  PHE103     -0.0202
     63  CD1       13.2840   -6.0640   15.5270 C.ar  103  PHE103     -0.0042
     64  CD2       15.1810   -5.9290   14.0690 C.ar  103  PHE103     -0.0042
     65  CE1       13.2360   -4.6780   15.5970 C.ar  103  PHE103     -0.0003
     66  CE2       15.1410   -4.5410   14.1320 C.ar  103  PHE103     -0.0003
     67  CZ        14.1680   -3.9140   14.9010 C.ar  103  PHE103     -0.0000
     68  N         13.8910  -10.9690   16.1090 N.am  104  GLU104     -0.1965
     69  CA        13.5840  -12.3450   15.7400 C.3   104  GLU104      0.1733
     70  C         13.7640  -12.5250   14.2360 C.2   104  GLU104      0.2616
     71  O         13.5490  -11.5900   13.4610 O.2   104  GLU104     -0.2715
     72  CB        12.1410  -12.6860   16.1250 C.3   104  GLU104      0.0429
     73  CG        11.0940  -11.7280   15.5470 C.3   104  GLU104      0.1163
     74  CD         9.6730  -12.2440   15.6690 C.2   104  GLU104      0.3649
     75  OE1        9.4280  -13.4160   15.3120 O.co2 104  GLU104     -0.2457
     76  OE2        8.7950  -11.4720   16.1050 O.co2 104  GLU104     -0.2457
     77  N         14.1640  -13.7220   13.8240 N.am  105  HIS105     -0.1959
     78  CA        14.3510  -14.0000   12.4090 C.3   105  HIS105      0.1787
     79  C         13.0090  -14.2710   11.7410 C.2   105  HIS105      0.2620
     80  O         12.1320  -14.9070   12.3310 O.2   105  HIS105     -0.2715
     81  CB        15.2820  -15.1960   12.2150 C.3   105  HIS105      0.0785
     82  CG        15.4840  -15.5670   10.7820 C.ar  105  HIS105      0.0821
     83  ND1       14.8230  -16.6190   10.1860 N.ar  105  HIS105     -0.2267
     84  CD2       16.2530  -15.0100    9.8180 C.ar  105  HIS105      0.1154
     85  CE1       15.1880  -16.7010    8.9190 C.ar  105  HIS105      0.1986
     86  NE2       16.0530  -15.7360    8.6700 N.ar  105  HIS105     -0.2212
     87  N         12.8470  -13.7720   10.5170 N.am  106  VAL106     -0.1977
     88  CA        11.6790  -14.0980    9.6980 C.3   106  VAL106      0.1596
     89  C         12.0870  -14.2510    8.2350 C.2   106  VAL106      0.2287
     90  O         12.9040  -13.4790    7.7200 O.2   106  VAL106     -0.2864
     91  CB        10.5360  -13.0360    9.7870 C.3   106  VAL106      0.0276
     92  CG1        9.2080  -13.6730    9.4270 C.3   106  VAL106      0.0022
     93  CG2       10.4360  -12.4120   11.1740 C.3   106  VAL106      0.0022
     94  N         11.0860  -13.9420    4.3040 N.3   108  ASN108     -0.1240
     95  CA        10.1690  -13.1920    3.4540 C.3   108  ASN108      0.1653
     96  C          9.9220  -13.9310    2.1460 C.2   108  ASN108      0.2266
     97  O         10.8500  -14.1440    1.3600 O.2   108  ASN108     -0.2867
     98  CB        10.6860  -11.7800    3.1740 C.3   108  ASN108      0.1155
     99  CG         9.6700  -10.9290    2.4320 C.2   108  ASN108      0.2627
    100  OD1        8.6320  -10.5560    2.9820 O.2   108  ASN108     -0.2716
    101  ND2        9.9610  -10.6250    1.1710 N.am  108  ASN108     -0.0877
    102  N          5.7450   -8.1550    6.5210 N.3   153  MET153     -0.1245
    103  CA         6.4470   -9.3610    6.1110 C.3   153  MET153      0.1570
    104  C          5.5350  -10.5710    6.2180 C.2   153  MET153      0.2261
    105  O          5.0730  -10.9200    7.3040 O.2   153  MET153     -0.2867
    106  CB         7.6980   -9.5750    6.9570 C.3   153  MET153      0.0387
    107  CG         8.6320   -8.4000    6.9730 C.3   153  MET153      0.0595
    108  SD        10.3410   -8.9210    7.1140 S.3   153  MET153     -0.1393
    109  CE        10.8290   -8.9160    5.3860 C.3   153  MET153      0.0692
    110  N          6.5380   -4.8170   10.5920 N.3   164  ILE164     -0.1231
    111  CA         7.9080   -4.3570   10.8240 C.3   164  ILE164      0.1692
    112  C          8.1060   -2.8620   10.5690 C.2   164  ILE164      0.2592
    113  O          7.1690   -2.1470   10.2140 O.2   164  ILE164     -0.2718
    114  CB         8.9570   -5.1690    9.9960 C.3   164  ILE164      0.0266
    115  CG1        8.6950   -5.0450    8.4920 C.3   164  ILE164      0.0019
    116  CG2        8.9860   -6.6280   10.4370 C.3   164  ILE164      0.0020
    117  CD1        9.9300   -5.1910    7.6190 C.3   164  ILE164      0.0001
    118  N          9.3510   -2.4270   10.7620 N.am  165  ASP165     -0.1960
    119  CA         9.8220   -1.0450   10.5830 C.3   165  ASP165      0.1840
    120  C          9.0130   -0.0170   11.3540 C.2   165  ASP165      0.2622
    121  O          8.2200    0.7290   10.7830 O.2   165  ASP165     -0.2715
    122  CB         9.9720   -0.6660    9.1020 C.3   165  ASP165      0.1450
    123  CG        10.9880    0.4510    8.8840 C.2   165  ASP165      0.3671
    124  OD1       11.3080    0.7450    7.7130 O.co2 165  ASP165     -0.2456
    125  OD2       11.4740    1.0380    9.8770 O.co2 165  ASP165     -0.2456
    126  N          9.2440    0.0120   12.6640 N.am  166  TRP166     -0.1974
    127  CA         8.5410    0.9130   13.5670 C.3   166  TRP166      0.1640
    128  C          9.3230    2.2130   13.7830 C.2   166  TRP166      0.2290
    129  O          9.1400    2.9000   14.7880 O.2   166  TRP166     -0.2864
    130  CB         8.2620    0.2080   14.8950 C.3   166  TRP166      0.0576
    131  CG         7.2900   -0.9310   14.7670 C.ar  166  TRP166      0.0006
    132  CD1        7.5740   -2.2180   14.4070 C.ar  166  TRP166      0.0946
    133  CD2        5.8770   -0.8840   14.9970 C.ar  166  TRP166      0.0152
    134  NE1        6.4280   -2.9760   14.3980 N.ar  166  TRP166     -0.2442
    135  CE2        5.3710   -2.1830   14.7560 C.ar  166  TRP166      0.0810
    136  CE3        4.9880    0.1290   15.3840 C.ar  166  TRP166      0.0012
    137  CZ2        4.0190   -2.4960   14.8920 C.ar  166  TRP166      0.0191
    138  CZ3        3.6420   -0.1830   15.5140 C.ar  166  TRP166      0.0001
    139  CH2        3.1710   -1.4880   15.2710 C.ar  166  TRP166      0.0015
@<TRIPOS>BOND
     1   101    99   am
     2    97    96    2
     3    96    95    1
     4     3     4    2
     5     3     2    1
     6    99   100    2
     7    99    98    1
     8    98    95    1
     9    95    94    1
    10     2     1    1
    11     2     5    1
    12     5     6    1
    13     8     6    1
    14   109   108    1
    15     6     7    1
    16   103   104    1
    17   103   102    1
    18   103   106    1
    19   104   105    2
    20    12    11    2
    21   106   107    1
    22   107   108    1
    23     9    10    1
    24    13    15    1
    25    13    10    1
    26    13    14    1
    27    11    10    1
    28   117   115    1
    29   124   123   ar
    30    90    89    2
    31    89    88    1
    32   115   114    1
    33    86    85   ar
    34    86    84   ar
    35   123   122    1
    36   123   125   ar
    37    85    83   ar
    38   122   119    1
    39    92    91    1
    40    88    91    1
    41    88    87    1
    42    91    93    1
    43    84    82   ar
    44   114   116    1
    45   114   111    1
    46    22    20    1
    47    83    82   ar
    48   113   112    2
    49    21    20    1
    50    87    79   am
    51   112   118   am
    52   112   111    1
    53   119   118    1
    54   119   120    1
    55   110   111    1
    56    82    81    1
    57   121   120    2
    58    20    17    1
    59    29    28    1
    60    29    30    1
    61    28    27    1
    62   120   126   am
    63    79    80    2
    64    79    78    1
    65    17    18    1
    66    17    16    1
    67    24    27    1
    68    24    25    1
    69    24    23    1
    70    31    30    1
    71    81    78    1
    72    78    77    1
    73    25    26    2
    74   126   127    1
    75    18    19    2
    76    56    54    1
    77    71    70    2
    78   127   128    1
    79   127   130    1
    80   128   129    2
    81    77    70   am
    82    54    53    1
    83    64    66   ar
    84    64    62   ar
    85    40    38   ar
    86    66    67   ar
    87    53    55    1
    88    53    50    1
    89    70    69    1
    90   134   132   ar
    91   134   135   ar
    92   132   131   ar
    93    39    38   ar
    94    61    62    1
    95    61    58    1
    96   135   137   ar
    97   135   133   ar
    98    62    63   ar
    99   131   130    1
   100   131   133   ar
   101    38    37    1
   102   137   139   ar
   103    67    65   ar
   104   133   136   ar
   105    49    50    1
   106    50    51    1
   107    60    59    2
   108   139   138   ar
   109    75    74   ar
   110   136   138   ar
   111    63    65   ar
   112    73    74    1
   113    73    72    1
   114    74    76   ar
   115    59    58    1
   116    59    68   am
   117    69    68    1
   118    69    72    1
   119    58    57    1
   120    37    36    1
   121    51    52    2
   122    36    33    1
   123    48    46    1
   124    47    46    1
   125    46    45    1
   126    33    32    1
   127    33    34    1
   128    34    35    2
   129    45    42    1
   130    42    41    1
   131    42    43    1
   132    43    44    2
