@<TRIPOS>MOLECULE
tmp/3angA01.pdb
 199 187 0 0 0
SMALL
GASTEIGER

@<TRIPOS>ATOM
      1  N         74.9610   59.3540    2.4780 N.3    59  GLY59      -0.1225
      2  CA        74.6590   60.6360    1.8740 C.3    59  GLY59       0.1811
      3  C         73.1900   60.9760    2.0050 C.2    59  GLY59       0.2280
      4  O         72.8260   62.1390    2.1820 O.2    59  GLY59      -0.2866
      5  N         72.6730   62.3600    5.3670 N.3    62  LEU62      -0.1231
      6  CA        73.1790   63.7320    5.4640 C.3    62  LEU62       0.1693
      7  C         72.1840   64.6980    4.8150 C.2    62  LEU62       0.2591
      8  O         71.9090   65.7780    5.3440 O.2    62  LEU62      -0.2718
      9  CB        74.5520   63.8620    4.7810 C.3    62  LEU62       0.0284
     10  CG        75.7870   63.2250    5.4390 C.3    62  LEU62       0.0019
     11  CD1       76.9860   63.2820    4.4790 C.3    62  LEU62       0.0001
     12  CD2       76.1190   63.9560    6.7350 C.3    62  LEU62       0.0001
     13  N         71.6380   64.2910    3.6740 N.am   63  LEU63      -0.1980
     14  CA        70.6800   65.1100    2.9530 C.3    63  LEU63       0.1596
     15  C         69.3790   65.3030    3.7450 C.2    63  LEU63       0.2287
     16  O         68.7830   66.3830    3.7100 O.2    63  LEU63      -0.2864
     17  CB        70.3810   64.4640    1.5990 C.3    63  LEU63       0.0297
     18  CG        69.6190   65.2790    0.5520 C.3    63  LEU63       0.0022
     19  CD1       68.1480   65.4110    0.9610 C.3    63  LEU63       0.0001
     20  CD2       70.2900   66.6560    0.3920 C.3    63  LEU63       0.0001
     21  N         69.8900   68.0000    6.2310 N.3    66  LEU66      -0.1245
     22  CA        69.8930   69.3180    5.6080 C.3    66  LEU66       0.1561
     23  C         68.4660   69.7330    5.2600 C.2    66  LEU66       0.2260
     24  O         68.0930   70.8960    5.4000 O.2    66  LEU66      -0.2867
     25  CB        70.7390   69.3100    4.3360 C.3    66  LEU66       0.0270
     26  CG        72.2500   69.1810    4.5100 C.3    66  LEU66       0.0019
     27  CD1       72.9140   69.3130    3.1400 C.3    66  LEU66       0.0001
     28  CD2       72.7670   70.2610    5.4530 C.3    66  LEU66       0.0001
     29  N         76.6970   73.0210    2.8610 N.3    91  LEU91      -0.1245
     30  CA        77.1140   71.9530    1.9570 C.3    91  LEU91       0.1561
     31  C         78.6380   72.0030    1.7880 C.2    91  LEU91       0.2260
     32  O         79.3140   70.9630    1.7460 O.2    91  LEU91      -0.2867
     33  CB        76.4390   72.1040    0.5870 C.3    91  LEU91       0.0270
     34  CG        75.0790   71.4400    0.3720 C.3    91  LEU91       0.0019
     35  CD1       74.5550   71.7670   -1.0370 C.3    91  LEU91       0.0001
     36  CD2       75.2420   69.9130    0.5490 C.3    91  LEU91       0.0001
     37  N         80.9330   68.9840    3.0590 N.3    95  THR95      -0.1218
     38  CA        81.6860   68.2940    2.0060 C.3    95  THR95       0.1862
     39  C         83.1780   68.2890    2.3050 C.2    95  THR95       0.2287
     40  O         83.8620   67.3100    2.0250 O.2    95  THR95      -0.2866
     41  CB        81.4970   68.9530    0.6160 C.3    95  THR95       0.1770
     42  OG1       80.1120   68.9170    0.2420 O.3    95  THR95      -0.2211
     43  CG2       82.3070   68.1980   -0.4400 C.3    95  THR95       0.0375
     44  N         82.8520   61.0710    0.7630 N.3   102  LEU102     -0.1245
     45  CA        82.0020   61.6120   -0.2860 C.3   102  LEU102      0.1561
     46  C         82.5730   61.4410   -1.7020 C.2   102  LEU102      0.2260
     47  O         81.8220   61.2790   -2.6640 O.2   102  LEU102     -0.2867
     48  CB        81.7290   63.0910   -0.0070 C.3   102  LEU102      0.0270
     49  CG        80.9740   63.4000    1.2960 C.3   102  LEU102      0.0019
     50  CD1       80.8840   64.9010    1.5020 C.3   102  LEU102      0.0001
     51  CD2       79.5810   62.7920    1.2530 C.3   102  LEU102      0.0001
     52  N         80.5740   60.2540   -4.9110 N.3   105  PHE105     -0.1241
     53  CA        80.3410   61.1790   -6.0270 C.3   105  PHE105      0.1605
     54  C         80.5180   60.4630   -7.3740 C.2   105  PHE105      0.2264
     55  O         79.7500   60.6980   -8.3000 O.2   105  PHE105     -0.2867
     56  CB        81.3080   62.3860   -5.9960 C.3   105  PHE105      0.0534
     57  CG        80.9820   63.4390   -4.9490 C.ar  105  PHE105     -0.0203
     58  CD1       79.6830   63.6310   -4.4910 C.ar  105  PHE105     -0.0042
     59  CD2       81.9910   64.2680   -4.4480 C.ar  105  PHE105     -0.0042
     60  CE1       79.3900   64.6300   -3.5510 C.ar  105  PHE105     -0.0003
     61  CE2       81.7080   65.2700   -3.5100 C.ar  105  PHE105     -0.0003
     62  CZ        80.4100   65.4500   -3.0620 C.ar  105  PHE105     -0.0000
     63  N         77.5590   58.5590   -9.0330 N.3   108  LEU108     -0.1231
     64  CA        76.5760   59.2760   -9.8410 C.3   108  LEU108      0.1693
     65  C         76.9830   59.2380  -11.3160 C.2   108  LEU108      0.2591
     66  O         76.1600   59.4710  -12.2080 O.2   108  LEU108     -0.2718
     67  CB        76.4840   60.7260   -9.3690 C.3   108  LEU108      0.0284
     68  CG        75.7430   60.8400   -8.0450 C.3   108  LEU108      0.0019
     69  CD1       76.2930   61.9790   -7.1940 C.3   108  LEU108      0.0001
     70  CD2       74.2740   61.0110   -8.3580 C.3   108  LEU108      0.0001
     71  N         78.2630   58.9590  -11.5630 N.am  109  LEU109     -0.1980
     72  CA        78.8000   58.8840  -12.9200 C.3   109  LEU109      0.1596
     73  C         79.0960   57.4290  -13.3110 C.2   109  LEU109      0.2287
     74  O         79.9000   57.1530  -14.2060 O.2   109  LEU109     -0.2864
     75  CB        80.0950   59.6900  -13.0170 C.3   109  LEU109      0.0297
     76  CG        80.0650   61.1550  -12.5720 C.3   109  LEU109      0.0022
     77  CD1       81.4940   61.6910  -12.5730 C.3   109  LEU109      0.0001
     78  CD2       79.1530   61.9770  -13.4870 C.3   109  LEU109      0.0001
     79  N         73.8620   52.5250  -16.0200 N.3   113  PRO113     -0.2116
     80  CA        72.7040   53.4000  -15.7820 C.3   113  PRO113      0.1372
     81  C         71.8540   53.0550  -14.5610 C.2   113  PRO113      0.2244
     82  O         71.2790   53.9400  -13.9240 O.2   113  PRO113     -0.2868
     83  CB        71.9020   53.2780  -17.0760 C.3   113  PRO113      0.0268
     84  CG        72.9450   52.9140  -18.0990 C.3   113  PRO113      0.0207
     85  CD        73.7760   51.9040  -17.3510 C.3   113  PRO113      0.0892
     86  N         73.8010   54.5900  -11.6230 N.3   116  ALA116     -0.1231
     87  CA        73.8690   56.0350  -11.6790 C.3   116  ALA116      0.1694
     88  C         72.4890   56.5040  -11.2210 C.2   116  ALA116      0.2591
     89  O         72.3610   57.4270  -10.4110 O.2   116  ALA116     -0.2718
     90  CB        74.1510   56.4960  -13.0930 C.3   116  ALA116      0.0304
     91  N         71.4570   55.8250  -11.7110 N.am  117  ARG117     -0.1980
     92  CA        70.0890   56.1660  -11.3570 C.3   117  ARG117      0.1597
     93  C         69.8170   56.0020   -9.8600 C.2   117  ARG117      0.2287
     94  O         69.2040   56.8670   -9.2280 O.2   117  ARG117     -0.2864
     95  CB        69.1130   55.2990  -12.1530 C.3   117  ARG117      0.0334
     96  CG        67.6470   55.5440  -11.8210 C.3   117  ARG117      0.0492
     97  CD        67.2440   56.9670  -12.1910 C.3   117  ARG117      0.2205
     98  NE        65.8720   57.2940  -11.7920 N.pl3 117  ARG117     -0.0865
     99  CZ        64.8080   57.2260  -12.5910 C.cat 117  ARG117      0.5346
    100  NH1       64.9390   56.8390  -13.8550 N.pl3 117  ARG117      0.1354
    101  NH2       63.6100   57.5550  -12.1220 N.pl3 117  ARG117      0.1354
    102  N         71.4930   58.7580   -7.9630 N.3   120  PHE120     -0.1241
    103  CA        70.7190   59.9900   -8.1460 C.3   120  PHE120      0.1605
    104  C         69.4790   60.0880   -7.2460 C.2   120  PHE120      0.2264
    105  O         69.2680   61.1050   -6.5780 O.2   120  PHE120     -0.2867
    106  CB        70.2700   60.1280   -9.6020 C.3   120  PHE120      0.0534
    107  CG        69.6760   61.4700   -9.9220 C.ar  120  PHE120     -0.0203
    108  CD1       70.4950   62.5420  -10.2780 C.ar  120  PHE120     -0.0042
    109  CD2       68.3090   61.6730   -9.8470 C.ar  120  PHE120     -0.0042
    110  CE1       69.9570   63.8070  -10.5540 C.ar  120  PHE120     -0.0003
    111  CE2       67.7560   62.9380  -10.1220 C.ar  120  PHE120     -0.0003
    112  CZ        68.5840   64.0050  -10.4740 C.ar  120  PHE120     -0.0000
    113  N         70.1440   60.7800   -3.5040 N.3   123  LEU123     -0.1245
    114  CA        70.6620   62.0860   -3.1070 C.3   123  LEU123      0.1561
    115  C         69.9280   63.2390   -3.8180 C.2   123  LEU123      0.2260
    116  O         70.5390   64.0360   -4.5200 O.2   123  LEU123     -0.2867
    117  CB        72.1680   62.1360   -3.4420 C.3   123  LEU123      0.0270
    118  CG        73.0170   60.8810   -3.1490 C.3   123  LEU123      0.0019
    119  CD1       74.3350   60.9320   -3.8820 C.3   123  LEU123      0.0001
    120  CD2       73.2680   60.7840   -1.6500 C.3   123  LEU123      0.0001
    121  N         69.3060   66.4070   -3.9680 N.3   125  LEU125     -0.1231
    122  CA        69.6180   67.7820   -3.5860 C.3   125  LEU125      0.1693
    123  C         68.7940   68.7050   -4.4730 C.2   125  LEU125      0.2592
    124  O         68.2940   69.7380   -4.0290 O.2   125  LEU125     -0.2718
    125  CB        71.0990   68.0660   -3.8100 C.3   125  LEU125      0.0284
    126  CG        71.5600   69.4900   -3.5110 C.3   125  LEU125      0.0019
    127  CD1       71.2510   69.8610   -2.0560 C.3   125  LEU125      0.0001
    128  CD2       73.0560   69.5770   -3.7910 C.3   125  LEU125      0.0001
    129  N         68.6650   68.3150   -5.7350 N.am  126  GLY126     -0.1957
    130  CA        67.9000   69.0930   -6.6820 C.3   126  GLY126      0.1869
    131  C         66.5150   69.4330   -6.1770 C.2   126  GLY126      0.2309
    132  O         66.0820   70.5910   -6.2930 O.2   126  GLY126     -0.2863
    133  N         61.6570   72.3070  -10.5430 N.3   149  GLU149     -0.1231
    134  CA        62.4430   71.0860  -10.5560 C.3   149  GLU149      0.1699
    135  C         63.6910   71.1620  -11.4260 C.2   149  GLU149      0.2592
    136  O         64.7700   70.7910  -10.9790 O.2   149  GLU149     -0.2718
    137  CB        61.6000   69.8810  -10.9950 C.3   149  GLU149      0.0402
    138  CG        62.4650   68.6450  -11.1940 C.3   149  GLU149      0.1161
    139  CD        61.6910   67.3400  -11.2690 C.2   149  GLU149      0.3649
    140  OE1       60.8490   67.1850  -12.1870 O.co2 149  GLU149     -0.2457
    141  OE2       61.9430   66.4620  -10.4070 O.co2 149  GLU149     -0.2457
    142  N         63.5530   71.6300  -12.6630 N.am  150  ARG150     -0.1980
    143  CA        64.7120   71.7030  -13.5420 C.3   150  ARG150      0.1597
    144  C         65.7280   72.7310  -13.0790 C.2   150  ARG150      0.2287
    145  O         66.9250   72.5550  -13.3070 O.2   150  ARG150     -0.2864
    146  CB        64.3010   72.0010  -14.9890 C.3   150  ARG150      0.0334
    147  CG        63.6740   70.8200  -15.7220 C.3   150  ARG150      0.0492
    148  CD        63.3810   71.1660  -17.1780 C.3   150  ARG150      0.2205
    149  NE        64.5860   71.2190  -17.9980 N.pl3 150  ARG150     -0.0865
    150  CZ        64.6570   71.8590  -19.1650 C.cat 150  ARG150      0.5346
    151  NH1       63.5930   72.5070  -19.6380 N.pl3 150  ARG150      0.1354
    152  NH2       65.7770   71.8400  -19.8740 N.pl3 150  ARG150      0.1354
    153  N         67.5450   71.2700  -10.0030 N.3   152  ARG152     -0.1245
    154  CA        68.4420   70.2260  -10.5040 C.3   152  ARG152      0.1563
    155  C         69.7070   70.8320  -11.1250 C.2   152  ARG152      0.2260
    156  O         70.8070   70.2900  -10.9810 O.2   152  ARG152     -0.2867
    157  CB        67.7420   69.3530  -11.5600 C.3   152  ARG152      0.0307
    158  CG        68.7310   68.4430  -12.3170 C.3   152  ARG152      0.0489
    159  CD        68.0680   67.5640  -13.3560 C.3   152  ARG152      0.2205
    160  NE        67.0690   66.6900  -12.7520 N.pl3 152  ARG152     -0.0865
    161  CZ        66.3430   65.8020  -13.4290 C.cat 152  ARG152      0.5346
    162  NH1       65.4520   65.0480  -12.7980 N.pl3 152  ARG152      0.1354
    163  NH2       66.5120   65.6630  -14.7390 N.pl3 152  ARG152      0.1354
    164  N         71.8720   71.9130   -8.3530 N.3   155  ALA155     -0.1231
    165  CA        72.4360   70.7160   -7.7040 C.3   155  ALA155      0.1694
    166  C         73.5540   70.1230   -8.5670 C.2   155  ALA155      0.2592
    167  O         74.5740   69.6320   -8.0450 O.2   155  ALA155     -0.2718
    168  CB        71.3450   69.6790   -7.4570 C.3   155  ALA155      0.0304
    169  N         73.3880   70.1910   -9.8890 N.am  156  ASP156     -0.1974
    170  CA        74.4210   69.6650  -10.7810 C.3   156  ASP156      0.1709
    171  C         75.7130   70.4710  -10.6540 C.2   156  ASP156      0.2293
    172  O         76.8100   69.9140  -10.7150 O.2   156  ASP156     -0.2864
    173  CB        73.9480   69.6810  -12.2350 C.3   156  ASP156      0.1436
    174  CG        72.8310   68.6830  -12.4950 C.2   156  ASP156      0.3671
    175  OD1       72.8880   67.5590  -11.9430 O.co2 156  ASP156     -0.2456
    176  OD2       71.9050   69.0110  -13.2580 O.co2 156  ASP156     -0.2456
    177  N         76.6990   72.1240   -7.9660 N.3   158  TYR158     -0.1227
    178  CA        77.2800   71.7520   -6.6930 C.3   158  TYR158      0.1736
    179  C         78.0750   70.4600   -6.8770 C.2   158  TYR158      0.2595
    180  O         79.2510   70.3760   -6.4870 O.2   158  TYR158     -0.2718
    181  CB        76.1970   71.5180   -5.6420 C.3   158  TYR158      0.0548
    182  CG        76.7200   70.6440   -4.5360 C.ar  158  TYR158     -0.0200
    183  CD1       77.6390   71.1400   -3.6030 C.ar  158  TYR158     -0.0009
    184  CD2       76.4080   69.2830   -4.5010 C.ar  158  TYR158     -0.0009
    185  CE1       78.2400   70.2950   -2.6750 C.ar  158  TYR158      0.0417
    186  CE2       76.9980   68.4310   -3.5820 C.ar  158  TYR158      0.0417
    187  CZ        77.9190   68.9360   -2.6730 C.ar  158  TYR158      0.1957
    188  OH        78.5640   68.0730   -1.8110 O.3   158  TYR158     -0.2866
    189  N         77.4310   69.4620   -7.4830 N.am  159  PHE159     -0.1976
    190  CA        78.0710   68.1690   -7.7060 C.3   159  PHE159      0.1639
    191  C         79.4050   68.3270   -8.4460 C.2   159  PHE159      0.2290
    192  O         80.4510   67.8590   -7.9760 O.2   159  PHE159     -0.2864
    193  CB        77.1330   67.2280   -8.4870 C.3   159  PHE159      0.0560
    194  CG        77.8170   65.9870   -8.9990 C.ar  159  PHE159     -0.0200
    195  CD1       78.0720   64.9090   -8.1510 C.ar  159  PHE159     -0.0042
    196  CD2       78.2860   65.9300  -10.3140 C.ar  159  PHE159     -0.0042
    197  CE1       78.7910   63.8000   -8.6040 C.ar  159  PHE159     -0.0003
    198  CE2       79.0000   64.8320  -10.7740 C.ar  159  PHE159     -0.0003
    199  CZ        79.2570   63.7680   -9.9230 C.ar  159  PHE159     -0.0000
@<TRIPOS>BOND
     1   152   150    1
     2   151   150    1
     3   150   149    2
     4    84    85    1
     5    84    83    1
     6   149   148    1
     7    85    79    1
     8   148   147    1
     9    83    80    1
    10    79    80    1
    11    80    81    1
    12   147   146    1
    13   146   143    1
    14   163   161    1
    15    81    82    2
    16    74    73    2
    17   100    99    1
    18   143   144    1
    19   143   142    1
    20    78    76    1
    21   161   162    1
    22   161   160    2
    23   159   160    1
    24   159   158    1
    25    73    72    1
    26   145   144    2
    27   176   174   ar
    28    90    87    1
    29    75    72    1
    30    75    76    1
    31    72    71    1
    32   142   135   am
    33    99   101    1
    34    99    98    2
    35    77    76    1
    36   174   173    1
    37   174   175   ar
    38   158   157    1
    39   173   170    1
    40    66    65    2
    41    97    96    1
    42    97    98    1
    43   140   139   ar
    44    95    96    1
    45    95    92    1
    46    91    92    1
    47    91    88   am
    48    87    86    1
    49    87    88    1
    50    71    65   am
    51   157   154    1
    52   135   136    2
    53   135   134    1
    54    92    93    1
    55    65    64    1
    56   139   138    1
    57   139   141   ar
    58    88    89    2
    59   138   137    1
    60   155   156    2
    61   155   154    1
    62   137   134    1
    63   170   171    1
    64   170   169    1
    65   198   196   ar
    66   198   199   ar
    67   172   171    2
    68   134   133    1
    69   110   112   ar
    70   110   108   ar
    71   154   153    1
    72   112   111   ar
    73   196   194   ar
    74   108   107   ar
    75   111   109   ar
    76   199   197   ar
    77   107   109   ar
    78   107   106    1
    79   169   166   am
    80    93    94    2
    81    64    67    1
    82    64    63    1
    83   106   103    1
    84    67    68    1
    85   194   193    1
    86   194   195   ar
    87   197   195   ar
    88   166   167    2
    89   166   165    1
    90   193   190    1
    91   191   192    2
    92   191   190    1
    93    70    68    1
    94   164   165    1
    95    55    54    2
    96   103   102    1
    97   103   104    1
    98    68    69    1
    99   177   178    1
   100   190   189    1
   101   165   168    1
   102   189   179   am
   103    54    53    1
   104   104   105    2
   105   179   178    1
   106   179   180    2
   107   178   181    1
   108   130   131    1
   109   130   129    1
   110   132   131    2
   111    53    56    1
   112    53    52    1
   113    56    57    1
   114   129   123   am
   115   181   182    1
   116    57    58   ar
   117    57    59   ar
   118   182   184   ar
   119   182   183   ar
   120   116   115    2
   121   184   186   ar
   122    58    60   ar
   123   123   124    2
   124   123   122    1
   125    59    61   ar
   126   121   122    1
   127   119   118    1
   128   115   114    1
   129   125   122    1
   130   125   126    1
   131   128   126    1
   132   183   185   ar
   133   186   187   ar
   134    60    62   ar
   135   126   127    1
   136    61    62   ar
   137   113   114    1
   138   117   118    1
   139   117   114    1
   140   118   120    1
   141   185   187   ar
   142   187   188    1
   143    47    46    2
   144    46    45    1
   145    35    34    1
   146    43    41    1
   147    45    48    1
   148    45    44    1
   149    48    49    1
   150    42    41    1
   151    34    36    1
   152    34    33    1
   153    20    18    1
   154    18    19    1
   155    18    17    1
   156    33    30    1
   157    41    38    1
   158    51    49    1
   159    49    50    1
   160    17    14    1
   161    32    31    2
   162    31    30    1
   163     2     3    1
   164     2     1    1
   165    30    29    1
   166     3     4    2
   167    38    39    1
   168    38    37    1
   169    40    39    2
   170    14    13    1
   171    14    15    1
   172    27    26    1
   173    13     7   am
   174    16    15    2
   175    25    26    1
   176    25    22    1
   177    11    10    1
   178    26    28    1
   179     9    10    1
   180     9     6    1
   181     7     8    2
   182     7     6    1
   183    23    24    2
   184    23    22    1
   185     5     6    1
   186    10    12    1
   187    22    21    1
