@<TRIPOS>MOLECULE
tmp/3ankA00.pdb
 168 162 0 0 0
SMALL
GASTEIGER

@<TRIPOS>ATOM
      1  N         20.8490   -9.4840   24.2850 N.3    67  GLU67      -0.1231
      2  CA        19.9440   -8.4040   24.7180 C.3    67  GLU67       0.1699
      3  C         18.6360   -8.4400   23.9320 C.2    67  GLU67       0.2592
      4  O         18.4460   -9.3210   23.1050 O.2    67  GLU67      -0.2718
      5  CB        20.6170   -7.0320   24.5800 C.3    67  GLU67       0.0402
      6  CG        21.1840   -6.4880   25.8890 C.3    67  GLU67       0.1161
      7  CD        20.0930   -6.0720   26.8700 C.2    67  GLU67       0.3649
      8  OE1       18.8960   -6.3000   26.5890 O.co2  67  GLU67      -0.2457
      9  OE2       20.4270   -5.4960   27.9170 O.co2  67  GLU67      -0.2457
     10  N         17.7290   -7.5010   24.1910 N.am   68  TRP68      -0.1976
     11  CA        16.4730   -7.4420   23.4290 C.3    68  TRP68       0.1640
     12  C         16.6630   -6.6060   22.1600 C.2    68  TRP68       0.2290
     13  O         15.7640   -6.5050   21.3260 O.2    68  TRP68      -0.2864
     14  CB        15.3250   -6.8670   24.2800 C.3    68  TRP68       0.0576
     15  CG        15.4370   -5.3980   24.5920 C.ar   68  TRP68       0.0006
     16  CD1       16.1430   -4.8310   25.6140 C.ar   68  TRP68       0.0946
     17  CD2       14.8140   -4.3080   23.8830 C.ar   68  TRP68       0.0152
     18  NE1       16.0050   -3.4610   25.5840 N.ar   68  TRP68      -0.2442
     19  CE2       15.1980   -3.1140   24.5330 C.ar   68  TRP68       0.0810
     20  CE3       13.9780   -4.2270   22.7570 C.ar   68  TRP68       0.0012
     21  CZ2       14.7740   -1.8530   24.1020 C.ar   68  TRP68       0.0191
     22  CZ3       13.5540   -2.9810   22.3320 C.ar   68  TRP68       0.0001
     23  CH2       13.9580   -1.8040   23.0030 C.ar   68  TRP68       0.0015
     24  N         13.2130  -13.6730   26.0750 N.3   111  ASP111     -0.1239
     25  CA        11.9830  -13.1850   26.7000 C.3   111  ASP111      0.1674
     26  C         10.9440  -12.8950   25.6190 C.2   111  ASP111      0.2266
     27  O         11.2100  -12.1380   24.6750 O.2   111  ASP111     -0.2867
     28  CB        12.2510  -11.9100   27.4910 C.3   111  ASP111      0.1410
     29  CG        11.0400  -11.4490   28.2620 C.2   111  ASP111      0.3668
     30  OD1       10.0250  -11.0750   27.6280 O.co2 111  ASP111     -0.2456
     31  OD2       11.1010  -11.4670   29.5100 O.co2 111  ASP111     -0.2456
     32  N          8.4530  -11.0530   25.1770 N.3   113  HIS113     -0.1226
     33  CA         8.1080   -9.6720   24.8400 C.3   113  HIS113      0.1752
     34  C          9.0410   -9.0560   23.8000 C.2   113  HIS113      0.2596
     35  O          8.7780   -7.9530   23.3080 O.2   113  HIS113     -0.2718
     36  CB         8.1120   -8.7850   26.0870 C.3   113  HIS113      0.0759
     37  CG         6.9870   -9.0660   27.0300 C.ar  113  HIS113      0.0818
     38  ND1        7.1470   -9.8140   28.1780 N.ar  113  HIS113     -0.2268
     39  CD2        5.6830   -8.7000   26.9970 C.ar  113  HIS113      0.1154
     40  CE1        5.9890   -9.8970   28.8110 C.ar  113  HIS113      0.1986
     41  NE2        5.0840   -9.2300   28.1150 N.ar  113  HIS113     -0.2212
     42  N         10.1320   -9.7450   23.4740 N.am  114  ASP114     -0.1974
     43  CA        11.1520   -9.1340   22.6230 C.3   114  ASP114      0.1709
     44  C         11.4680   -9.9420   21.3730 C.2   114  ASP114      0.2293
     45  O         12.3450   -9.5740   20.5940 O.2   114  ASP114     -0.2864
     46  CB        12.4360   -8.9070   23.4200 C.3   114  ASP114      0.1436
     47  CG        12.2210   -8.0050   24.6230 C.2   114  ASP114      0.3671
     48  OD1       12.9280   -8.1990   25.6360 O.co2 114  ASP114     -0.2456
     49  OD2       11.3420   -7.1170   24.5590 O.co2 114  ASP114     -0.2456
     50  N         11.0150   -7.8910   18.1360 N.3   117  PHE117     -0.1241
     51  CA        12.0970   -6.9180   17.9960 C.3   117  PHE117      0.1605
     52  C         13.4080   -7.5950   17.6100 C.2   117  PHE117      0.2264
     53  O         14.1740   -7.0600   16.8000 O.2   117  PHE117     -0.2867
     54  CB        12.2880   -6.1160   19.2830 C.3   117  PHE117      0.0534
     55  CG        11.2030   -5.1170   19.5400 C.ar  117  PHE117     -0.0203
     56  CD1       10.5630   -5.0720   20.7680 C.ar  117  PHE117     -0.0042
     57  CD2       10.8200   -4.2170   18.5500 C.ar  117  PHE117     -0.0042
     58  CE1        9.5540   -4.1470   21.0090 C.ar  117  PHE117     -0.0003
     59  CE2        9.8220   -3.2940   18.7770 C.ar  117  PHE117     -0.0003
     60  CZ         9.1900   -3.2470   20.0160 C.ar  117  PHE117     -0.0000
     61  N          1.7970   -5.1860   27.3240 N.3   152  ILE152     -0.1245
     62  CA         2.3430   -3.8450   27.2040 C.3   152  ILE152      0.1561
     63  C          2.1930   -3.3560   25.7640 C.2   152  ILE152      0.2260
     64  O          2.0860   -4.1620   24.8350 O.2   152  ILE152     -0.2867
     65  CB         3.8120   -3.8090   27.6410 C.3   152  ILE152      0.0252
     66  CG1        4.6310   -4.7990   26.8120 C.3   152  ILE152      0.0019
     67  CG2        3.9200   -4.1390   29.1310 C.3   152  ILE152      0.0019
     68  CD1        6.0490   -4.9960   27.3140 C.3   152  ILE152      0.0001
     69  N          4.1640   -2.1750   23.7540 N.3   154  ASN154     -0.1240
     70  CA         5.2740   -2.7020   22.9630 C.3   154  ASN154      0.1653
     71  C          4.8720   -3.9200   22.1370 C.2   154  ASN154      0.2266
     72  O          5.3970   -4.1460   21.0430 O.2   154  ASN154     -0.2867
     73  CB         6.4340   -3.1320   23.8790 C.3   154  ASN154      0.1155
     74  CG         6.8110   -2.0810   24.9210 C.2   154  ASN154      0.2627
     75  OD1        7.9360   -2.0880   25.4270 O.2   154  ASN154     -0.2716
     76  ND2        5.8850   -1.1940   25.2560 N.am  154  ASN154     -0.0877
     77  N         12.5250   -7.8590   36.2860 N.3   212  GLY212     -0.1225
     78  CA        12.7730   -7.4930   34.8920 C.3   212  GLY212      0.1811
     79  C         11.8330   -6.4560   34.3070 C.2   212  GLY212      0.2280
     80  O         12.0380   -5.9850   33.1850 O.2   212  GLY212     -0.2866
     81  N         10.4190   -2.7930   34.0630 N.3   214  THR214     -0.1218
     82  CA        10.8930   -1.4350   34.3380 C.3   214  THR214      0.1862
     83  C          9.7530   -0.4230   34.3200 C.2   214  THR214      0.2287
     84  O          8.8250   -0.5480   33.5200 O.2   214  THR214     -0.2866
     85  CB        11.9050   -0.9810   33.2670 C.3   214  THR214      0.1770
     86  OG1       12.7180   -2.0910   32.8680 O.3   214  THR214     -0.2211
     87  CG2       12.7800    0.1480   33.7960 C.3   214  THR214      0.0375
     88  N          7.7850    2.5050   33.0920 N.3   216  GLN216     -0.1245
     89  CA         7.7370    3.1820   31.8040 C.3   216  GLN216      0.1566
     90  C          7.0480    4.5270   31.9700 C.2   216  GLN216      0.2260
     91  O          5.8630    4.5890   32.3160 O.2   216  GLN216     -0.2867
     92  CB         6.9660    2.3450   30.7740 C.3   216  GLN216      0.0367
     93  CG         7.2830    0.8520   30.7800 C.3   216  GLN216      0.0905
     94  CD         6.3350    0.0550   29.9030 C.2   216  GLN216      0.2608
     95  OE1        5.1170    0.2520   29.9430 O.2   216  GLN216     -0.2717
     96  NE2        6.8900   -0.8570   29.1070 N.am  216  GLN216     -0.0878
     97  N          4.6860    8.1530   28.6190 N.3   224  TRP224     -0.1241
     98  CA         5.9600    7.7320   28.0750 C.3   224  TRP224      0.1605
     99  C          5.9670    7.9570   26.5580 C.2   224  TRP224      0.2264
    100  O          5.0830    7.4610   25.8540 O.2   224  TRP224     -0.2867
    101  CB         6.1360    6.2580   28.4060 C.3   224  TRP224      0.0550
    102  CG         7.4250    5.6410   27.9750 C.ar  224  TRP224      0.0003
    103  CD1        8.6610    6.2150   27.9760 C.ar  224  TRP224      0.0946
    104  CD2        7.6050    4.2950   27.5350 C.ar  224  TRP224      0.0152
    105  NE1        9.5980    5.3110   27.5490 N.ar  224  TRP224     -0.2442
    106  CE2        8.9710    4.1240   27.2650 C.ar  224  TRP224      0.0810
    107  CE3        6.7370    3.2180   27.3390 C.ar  224  TRP224      0.0012
    108  CZ2        9.4920    2.9200   26.8000 C.ar  224  TRP224      0.0191
    109  CZ3        7.2500    2.0340   26.8780 C.ar  224  TRP224      0.0001
    110  CH2        8.6180    1.8900   26.6100 C.ar  224  TRP224      0.0015
    111  N          8.0590    6.9960   24.0240 N.3   226  ARG226     -0.1245
    112  CA         8.2900    5.8300   23.1680 C.3   226  ARG226      0.1563
    113  C          7.1010    4.8630   23.2160 C.2   226  ARG226      0.2260
    114  O          6.7370    4.2620   22.2080 O.2   226  ARG226     -0.2867
    115  CB         9.6060    5.1190   23.5130 C.3   226  ARG226      0.0307
    116  CG         9.9000    3.9020   22.6150 C.3   226  ARG226      0.0489
    117  CD        11.3960    3.5870   22.5680 C.3   226  ARG226      0.2205
    118  NE        11.8900    3.0260   23.8290 N.pl3 226  ARG226     -0.0865
    119  CZ        12.6420    3.6830   24.7030 C.cat 226  ARG226      0.5346
    120  NH1       12.9880    4.9450   24.4700 N.pl3 226  ARG226      0.1354
    121  NH2       13.0500    3.0760   25.8100 N.pl3 226  ARG226      0.1354
    122  N          5.1540    3.3720   20.1070 N.3   230  TRP230     -0.1241
    123  CA         4.9280    1.9390   19.8770 C.3   230  TRP230      0.1605
    124  C          3.4860    1.7500   19.3920 C.2   230  TRP230      0.2264
    125  O          3.1980    0.8710   18.5730 O.2   230  TRP230     -0.2867
    126  CB         5.1420    1.1080   21.1570 C.3   230  TRP230      0.0550
    127  CG         6.6000    0.8890   21.6000 C.ar  230  TRP230      0.0003
    128  CD1        7.0650    0.8390   22.8900 C.ar  230  TRP230      0.0946
    129  CD2        7.7440    0.6880   20.7570 C.ar  230  TRP230      0.0152
    130  NE1        8.4320    0.6190   22.9010 N.ar  230  TRP230     -0.2442
    131  CE2        8.8690    0.5230   21.6030 C.ar  230  TRP230      0.0810
    132  CE3        7.9290    0.6270   19.3650 C.ar  230  TRP230      0.0012
    133  CZ2       10.1630    0.3020   21.1030 C.ar  230  TRP230      0.0191
    134  CZ3        9.2190    0.4120   18.8670 C.ar  230  TRP230      0.0001
    135  CH2       10.3150    0.2500   19.7360 C.ar  230  TRP230      0.0015
    136  N         16.7630    5.6820   27.1730 N.3   343  TYR343     -0.1227
    137  CA        16.4000    4.2850   27.3500 C.3   343  TYR343      0.1736
    138  C         15.4860    4.1400   28.5630 C.2   343  TYR343      0.2596
    139  O         14.2720    3.9990   28.4300 O.2   343  TYR343     -0.2718
    140  CB        17.6850    3.4540   27.5130 C.3   343  TYR343      0.0548
    141  CG        17.5290    1.9480   27.6170 C.ar  343  TYR343     -0.0200
    142  CD1       16.3420    1.3120   27.2570 C.ar  343  TYR343     -0.0009
    143  CD2       18.5930    1.1550   28.0370 C.ar  343  TYR343     -0.0009
    144  CE1       16.2120   -0.0660   27.3460 C.ar  343  TYR343      0.0417
    145  CE2       18.4750   -0.2240   28.1240 C.ar  343  TYR343      0.0417
    146  CZ        17.2810   -0.8290   27.7820 C.ar  343  TYR343      0.1957
    147  OH        17.1550   -2.2000   27.8600 O.3   343  TYR343     -0.2866
    148  N         16.0670    4.1950   29.7540 N.am  344  SER344     -0.1952
    149  CA        15.3010    3.9850   30.9730 C.3   344  SER344      0.1924
    150  C         15.5790    5.1190   31.9600 C.2   344  SER344      0.2314
    151  O         16.5890    5.0990   32.6800 O.2   344  SER344     -0.2863
    152  CB        15.6650    2.6300   31.5860 C.3   344  SER344      0.2116
    153  OG        14.7350    2.2370   32.5860 O.3   344  SER344     -0.2180
    154  N         15.8620    4.1070   35.8570 N.3   347  SER347     -0.1217
    155  CA        17.0250    3.3410   36.2740 C.3   347  SER347      0.1889
    156  C         18.3210    4.0550   35.9080 C.2   347  SER347      0.2288
    157  O         19.4100    3.5270   36.1360 O.2   347  SER347     -0.2866
    158  CB        16.9980    1.9390   35.6660 C.3   347  SER347      0.2089
    159  OG        16.9530    2.0150   34.2570 O.3   347  SER347     -0.2183
    160  N         19.5160    4.6150   33.0020 N.3   349  LYS349     -0.1245
    161  CA        20.2160    4.0060   31.8700 C.3   349  LYS349      0.1561
    162  C         19.8980    4.6640   30.5260 C.2   349  LYS349      0.2260
    163  O         18.7330    4.8590   30.1720 O.2   349  LYS349     -0.2867
    164  CB        19.9630    2.4940   31.8040 C.3   349  LYS349      0.0271
    165  CG        20.6470    1.7020   32.9200 C.3   349  LYS349      0.0035
    166  CD        20.7110    0.2130   32.5820 C.3   349  LYS349      0.0206
    167  CE        21.0290   -0.6500   33.8130 C.3   349  LYS349      0.1093
    168  NZ        22.4770   -0.6560   34.1910 N.3   349  LYS349     -0.1314
@<TRIPOS>BOND
     1    53    52    2
     2    52    51    1
     3    51    50    1
     4    51    54    1
     5    57    59   ar
     6    57    55   ar
     7   125   124    2
     8    59    60   ar
     9   134   132   ar
    10   134   135   ar
    11    54    55    1
    12   132   129   ar
    13   124   123    1
    14    55    56   ar
    15   135   133   ar
    16   123   122    1
    17   123   126    1
    18    60    58   ar
    19    45    44    2
    20   129   127   ar
    21   129   131   ar
    22    56    58   ar
    23    72    71    2
    24   133   131   ar
    25   126   127    1
    26    13    12    2
    27    44    43    1
    28   127   128   ar
    29   131   130   ar
    30    71    70    1
    31    12    11    1
    32   114   113    2
    33    22    20   ar
    34    22    23   ar
    35   117   116    1
    36   117   118    1
    37   116   115    1
    38    43    46    1
    39    43    42    1
    40    20    17   ar
    41   128   130   ar
    42    70    69    1
    43    70    73    1
    44    23    21   ar
    45     4     3    2
    46   112   113    1
    47   112   115    1
    48   112   111    1
    49    35    34    2
    50    46    47    1
    51    11    10    1
    52    11    14    1
    53    42    34   am
    54    34    33    1
    55   118   119    2
    56    73    74    1
    57    17    19   ar
    58    17    15   ar
    59     3    10   am
    60     3     2    1
    61    21    19   ar
    62    14    15    1
    63     1     2    1
    64   120   119    1
    65    19    18   ar
    66    49    47   ar
    67     5     2    1
    68     5     6    1
    69    15    16   ar
    70    47    48   ar
    71    27    26    2
    72   119   121    1
    73    64    63    2
    74    33    32    1
    75    33    36    1
    76    74    76   am
    77    74    75    2
    78    18    16   ar
    79    26    25    1
    80    63    62    1
    81   100    99    2
    82     6     7    1
    83    24    25    1
    84    36    37    1
    85    99    98    1
    86     8     7   ar
    87   110   108   ar
    88   110   109   ar
    89    25    28    1
    90   108   106   ar
    91    66    68    1
    92    66    65    1
    93     7     9   ar
    94   109   107   ar
    95    39    37   ar
    96    39    41   ar
    97    37    38   ar
    98   136   137    1
    99    62    61    1
   100    62    65    1
   101   142   144   ar
   102   142   141   ar
   103   106   104   ar
   104   106   105   ar
   105   107   104   ar
   106   144   146   ar
   107   137   140    1
   108   137   138    1
   109    28    29    1
   110   140   141    1
   111   104   102   ar
   112   105   103   ar
   113   141   143   ar
   114    30    29   ar
   115    65    67    1
   116   146   147    1
   117   146   145   ar
   118   102   103   ar
   119   102   101    1
   120   143   145   ar
   121    98   101    1
   122    98    97    1
   123    41    40   ar
   124    38    40   ar
   125    29    31   ar
   126   139   138    2
   127   138   148   am
   128    96    94   am
   129   148   149    1
   130    94    95    2
   131    94    93    1
   132   163   162    2
   133   162   161    1
   134    92    93    1
   135    92    89    1
   136   149   152    1
   137   149   150    1
   138   152   153    1
   139    89    90    1
   140    89    88    1
   141   164   161    1
   142   164   165    1
   143   161   160    1
   144   150   151    2
   145    90    91    2
   146   166   165    1
   147   166   167    1
   148    86    85    1
   149    80    79    2
   150    85    87    1
   151    85    82    1
   152    84    83    2
   153   167   168    1
   154    81    82    1
   155   159   158    1
   156    79    78    1
   157    83    82    1
   158    78    77    1
   159   158   155    1
   160   154   155    1
   161   156   157    2
   162   156   155    1
