@<TRIPOS>MOLECULE
tmp/3anlB01.pdb
 106 101 0 0 0
SMALL
GASTEIGER

@<TRIPOS>ATOM
      1  N        -21.9250   16.3960  -13.6680 N.3   152  GLU152     -0.1245
      2  CA       -21.0880   17.4720  -13.1080 C.3   152  GLU152      0.1567
      3  C        -21.8690   18.7710  -12.8960 C.2   152  GLU152      0.2260
      4  O        -21.8370   19.3380  -11.8170 O.2   152  GLU152     -0.2867
      5  CB       -19.8770   17.7440  -14.0210 C.3   152  GLU152      0.0388
      6  CG       -18.8610   16.5730  -14.0210 C.3   152  GLU152      0.1160
      7  CD       -19.2550   15.3770  -14.9120 C.2   152  GLU152      0.3649
      8  OE1      -18.5240   14.3710  -14.8760 O.co2 152  GLU152     -0.2457
      9  OE2      -20.2700   15.4130  -15.6500 O.co2 152  GLU152     -0.2457
     10  N        -15.0100   18.2630  -11.5550 N.3   184  THR184     -0.1203
     11  CA       -14.1910   17.0690  -11.4050 C.3   184  THR184      0.1994
     12  C        -14.3560   16.1430  -12.6230 C.2   184  THR184      0.2618
     13  O        -15.4370   16.0870  -13.2190 O.2   184  THR184     -0.2717
     14  CB       -14.5940   16.2640  -10.1300 C.3   184  THR184      0.1784
     15  OG1      -16.0140   16.0610  -10.1530 O.3   184  THR184     -0.2211
     16  CG2      -14.1730   17.0210   -8.8400 C.3   184  THR184      0.0376
     17  N        -13.2710   15.4420  -12.9710 N.am  185  GLY185     -0.1942
     18  CA       -13.1950   14.5470  -14.1530 C.3   185  GLY185      0.2014
     19  C        -12.3500   13.3380  -13.8210 C.2   185  GLY185      0.2640
     20  O        -11.4370   13.4580  -12.9870 O.2   185  GLY185     -0.2714
     21  N        -12.6680   12.1580  -14.3970 N.am  186  SER186     -0.1935
     22  CA       -11.9200   10.9330  -14.0590 C.3   186  SER186      0.2055
     23  C        -10.4530   10.9750  -14.4780 C.2   186  SER186      0.2643
     24  O         -9.6360   10.2770  -13.8980 O.2   186  SER186     -0.2714
     25  CB       -12.5560    9.6710  -14.6790 C.3   186  SER186      0.2130
     26  OG       -12.4440    9.7250  -16.0910 O.3   186  SER186     -0.2179
     27  N        -10.1320   11.7230  -15.5370 N.am  187  GLY187     -0.1954
     28  CA        -8.7810   11.6920  -16.1280 C.3   187  GLY187      0.1869
     29  C         -8.6440   10.5650  -17.1550 C.2   187  GLY187      0.2309
     30  O         -7.6170   10.4650  -17.8250 O.2   187  GLY187     -0.2863
     31  N        -12.7280    2.2680  -20.3800 N.3   209  HIS209     -0.1241
     32  CA       -12.7700    2.9820  -19.1370 C.3   209  HIS209      0.1621
     33  C        -13.0430    1.9690  -18.0330 C.2   209  HIS209      0.2264
     34  O        -14.0760    1.2630  -18.0620 O.2   209  HIS209     -0.2867
     35  CB       -13.8140    4.1160  -19.1350 C.3   209  HIS209      0.0745
     36  CG       -13.3570    5.3320  -18.3810 C.ar  209  HIS209      0.0817
     37  ND1      -13.1120    5.3170  -17.0180 N.ar  209  HIS209     -0.2268
     38  CD2      -13.0620    6.5900  -18.8040 C.ar  209  HIS209      0.1154
     39  CE1      -12.6970    6.5120  -16.6340 C.ar  209  HIS209      0.1986
     40  NE2      -12.6750    7.3070  -17.6930 N.ar  209  HIS209     -0.2212
     41  N        -13.9780    2.5640  -15.1880 N.3   211  ASN211     -0.1225
     42  CA       -15.0780    3.0310  -14.3370 C.3   211  ASN211      0.1785
     43  C        -16.3920    3.4190  -15.0450 C.2   211  ASN211      0.2597
     44  O        -17.1410    4.2870  -14.5510 O.2   211  ASN211     -0.2718
     45  CB       -14.5970    4.2080  -13.4700 C.3   211  ASN211      0.1169
     46  CG       -15.4670    4.4060  -12.2290 C.2   211  ASN211      0.2627
     47  OD1      -15.3600    3.6490  -11.2540 O.2   211  ASN211     -0.2716
     48  ND2      -16.3500    5.4020  -12.2760 N.am  211  ASN211     -0.0877
     49  N        -16.7230    2.7820  -16.1670 N.am  212  TRP212     -0.1976
     50  CA       -17.7780    3.3880  -16.9770 C.3   212  TRP212      0.1640
     51  C        -18.6830    2.5100  -17.8760 C.2   212  TRP212      0.2290
     52  O        -19.8500    2.2720  -17.5200 O.2   212  TRP212     -0.2864
     53  CB       -17.1790    4.5680  -17.7590 C.3   212  TRP212      0.0576
     54  CG       -18.0620    5.7810  -17.8350 C.ar  212  TRP212      0.0006
     55  CD1      -19.1320    6.1070  -17.0160 C.ar  212  TRP212      0.0946
     56  CD2      -17.9390    6.8530  -18.7700 C.ar  212  TRP212      0.0152
     57  NE1      -19.6780    7.3100  -17.4040 N.ar  212  TRP212     -0.2442
     58  CE2      -18.9650    7.7900  -18.4750 C.ar  212  TRP212      0.0810
     59  CE3      -17.0620    7.1170  -19.8320 C.ar  212  TRP212      0.0012
     60  CZ2      -19.1300    8.9620  -19.2130 C.ar  212  TRP212      0.0191
     61  CZ3      -17.2270    8.2680  -20.5510 C.ar  212  TRP212      0.0001
     62  CH2      -18.2470    9.1810  -20.2440 C.ar  212  TRP212      0.0015
     63  N        -13.3540   11.3640  -22.8620 N.3   222  SER222     -0.1217
     64  CA       -12.8970   11.1710  -21.4940 C.3   222  SER222      0.1889
     65  C        -11.3840   10.9020  -21.4320 C.2   222  SER222      0.2288
     66  O        -10.7350   11.3690  -20.4790 O.2   222  SER222     -0.2866
     67  CB       -13.6440    9.9860  -20.8340 C.3   222  SER222      0.2089
     68  OG       -13.0570    9.6760  -19.5660 O.3   222  SER222     -0.2183
     69  N         -9.7060   14.2120  -22.1110 N.3   225  MET225     -0.1245
     70  CA       -10.3390   15.2780  -21.3180 C.3   225  MET225      0.1570
     71  C        -10.9690   16.3910  -22.1290 C.2   225  MET225      0.2261
     72  O        -11.2250   17.4890  -21.6130 O.2   225  MET225     -0.2867
     73  CB        -9.4230   15.7760  -20.1900 C.3   225  MET225      0.0387
     74  CG        -9.2810   14.6950  -19.1150 C.3   225  MET225      0.0595
     75  SD        -8.5580   15.3340  -17.5890 S.3   225  MET225     -0.1393
     76  CE       -10.0110   16.0050  -16.7980 C.3   225  MET225      0.0692
     77  N        -13.9050   15.9330  -23.0170 N.3   227  ASN227     -0.1225
     78  CA       -15.2210   15.9310  -22.3650 C.3   227  ASN227      0.1785
     79  C        -15.3040   16.9290  -21.2120 C.2   227  ASN227      0.2597
     80  O        -16.2060   17.7090  -21.1320 O.2   227  ASN227     -0.2718
     81  CB       -15.6090   14.5350  -21.9060 C.3   227  ASN227      0.1169
     82  CG       -17.0630   14.4560  -21.4960 C.2   227  ASN227      0.2627
     83  OD1      -17.9550   14.8280  -22.2600 O.2   227  ASN227     -0.2716
     84  ND2      -17.3120   13.9820  -20.2800 N.am  227  ASN227     -0.0877
     85  N        -14.2940   16.9630  -20.3700 N.am  228  LYS228     -0.1980
     86  CA       -14.2000   18.0400  -19.3480 C.3   228  LYS228      0.1596
     87  C        -14.0100   19.4370  -19.9550 C.2   228  LYS228      0.2287
     88  O        -14.5230   20.4360  -19.4140 O.2   228  LYS228     -0.2864
     89  CB       -13.0550   17.7140  -18.3680 C.3   228  LYS228      0.0298
     90  CG       -13.3080   18.0970  -16.9140 C.3   228  LYS228      0.0038
     91  CD       -14.6440   17.5190  -16.3140 C.3   228  LYS228      0.0206
     92  CE       -14.9590   16.1280  -16.8190 C.3   228  LYS228      0.1093
     93  NZ       -16.0850   15.4820  -16.0560 N.3   228  LYS228     -0.1314
     94  N        -14.5960    9.1000   -9.4930 N.3   254  SER254     -0.1217
     95  CA       -15.8500    9.7520   -9.9280 C.3   254  SER254      0.1889
     96  C        -17.0140    9.5920   -8.9520 C.2   254  SER254      0.2288
     97  O        -18.1990    9.5760   -9.3510 O.2   254  SER254     -0.2866
     98  CB       -16.2560    9.2290  -11.2960 C.3   254  SER254      0.2089
     99  OG       -15.1910    9.3380  -12.2230 O.3   254  SER254     -0.2183
    100  N        -23.1330    6.0000   -9.8230 N.3   274  PRO274     -0.2116
    101  CA       -23.0270    6.4170  -11.2390 C.3   274  PRO274      0.1372
    102  C        -24.2860    5.9700  -12.0000 C.2   274  PRO274      0.2244
    103  O        -24.3860    4.8040  -12.4450 O.2   274  PRO274     -0.2868
    104  CB       -21.7920    5.6610  -11.7610 C.3   274  PRO274      0.0268
    105  CG       -21.5930    4.5210  -10.8480 C.3   274  PRO274      0.0207
    106  CD       -22.3240    4.7970   -9.5240 C.3   274  PRO274      0.0892
@<TRIPOS>BOND
     1    77    78    1
     2    63    64    1
     3    78    81    1
     4    78    79    1
     5    83    82    2
     6    71    72    2
     7    71    70    1
     8    69    70    1
     9    81    82    1
    10    82    84   am
    11    64    65    1
    12    64    67    1
    13    65    66    2
    14    70    73    1
    15    79    80    2
    16    79    85   am
    17    67    68    1
    18    61    62   ar
    19    61    59   ar
    20    31    32    1
    21    85    86    1
    22    62    60   ar
    23    73    74    1
    24    87    88    2
    25    87    86    1
    26    59    56   ar
    27    86    89    1
    28    60    58   ar
    29    32    35    1
    30    32    33    1
    31    35    36    1
    32    74    75    1
    33    38    36   ar
    34    38    40   ar
    35    56    58   ar
    36    56    54   ar
    37    58    57   ar
    38    36    37   ar
    39    89    90    1
    40    34    33    2
    41    51    52    2
    42    51    50    1
    43    54    53    1
    44    54    55   ar
    45    30    29    2
    46    53    50    1
    47    40    39   ar
    48    75    76    1
    49    57    55   ar
    50    29    28    1
    51    37    39   ar
    52    50    49    1
    53    90    91    1
    54    92    91    1
    55    92    93    1
    56    49    43   am
    57    28    27    1
    58    26    25    1
    59     9     7   ar
    60    27    23   am
    61    41    42    1
    62    43    44    2
    63    43    42    1
    64     7     8   ar
    65     7     6    1
    66    25    22    1
    67    23    22    1
    68    23    24    2
    69    21    22    1
    70    21    19   am
    71    42    45    1
    72    18    19    1
    73    18    17    1
    74     6     5    1
    75     5     2    1
    76    19    20    2
    77     1     2    1
    78    45    46    1
    79    13    12    2
    80     2     3    1
    81    17    12   am
    82     3     4    2
    83    12    11    1
    84   103   102    2
    85    48    46   am
    86    46    47    2
    87    99    98    1
    88   102   101    1
    89   104   101    1
    90   104   105    1
    91    10    11    1
    92    11    14    1
    93    98    95    1
    94   101   100    1
    95   105   106    1
    96    15    14    1
    97    14    16    1
    98    95    94    1
    99    95    96    1
   100   100   106    1
   101    97    96    2
