@<TRIPOS>MOLECULE
tmp/3anmB00.pdb
 131 125 0 0 0
SMALL
GASTEIGER

@<TRIPOS>ATOM
      1  N         22.0440   16.3660   13.7190 N.3   152  GLU152     -0.1245
      2  CA        21.2320   17.4880   13.2250 C.3   152  GLU152      0.1567
      3  C         22.0240   18.7720   12.9480 C.2   152  GLU152      0.2260
      4  O         21.9550   19.3080   11.8460 O.2   152  GLU152     -0.2867
      5  CB        20.0140   17.7800   14.1320 C.3   152  GLU152      0.0388
      6  CG        18.9410   16.6640   14.0550 C.3   152  GLU152      0.1160
      7  CD        19.3190   15.3790   14.8010 C.2   152  GLU152      0.3649
      8  OE1       18.5560   14.4070   14.7060 O.co2 152  GLU152     -0.2457
      9  OE2       20.3640   15.3210   15.4870 O.co2 152  GLU152     -0.2457
     10  N         13.3750   15.3810   13.0170 N.3   185  GLY185     -0.1210
     11  CA        13.3850   14.4110   14.1420 C.3   185  GLY185      0.1956
     12  C         12.4950   13.2360   13.7830 C.2   185  GLY185      0.2613
     13  O         11.5650   13.3970   12.9770 O.2   185  GLY185     -0.2717
     14  N         12.7870   12.0660   14.3520 N.am  186  SER186     -0.1938
     15  CA        12.0810   10.8350   14.0440 C.3   186  SER186      0.2055
     16  C         10.6130   10.8270   14.4670 C.2   186  SER186      0.2643
     17  O          9.8250   10.0940   13.8830 O.2   186  SER186     -0.2714
     18  CB        12.7890    9.6450   14.6910 C.3   186  SER186      0.2130
     19  OG        12.5930    9.6880   16.1120 O.3   186  SER186     -0.2179
     20  N         10.2580   11.6170   15.4840 N.am  187  GLY187     -0.1954
     21  CA         8.9120   11.6140   16.0880 C.3   187  GLY187      0.1869
     22  C          8.7710   10.5480   17.1760 C.2   187  GLY187      0.2309
     23  O          7.7520   10.4950   17.8850 O.2   187  GLY187     -0.2863
     24  N         12.4290    2.3920   20.6540 N.3   209  HIS209     -0.1241
     25  CA        12.4030    3.0570   19.3690 C.3   209  HIS209      0.1621
     26  C         12.4740    1.9640   18.2900 C.2   209  HIS209      0.2264
     27  O         13.4190    1.1400   18.3000 O.2   209  HIS209     -0.2867
     28  CB        13.5400    4.0860   19.2020 C.3   209  HIS209      0.0745
     29  CG        13.1970    5.1800   18.2330 C.ar  209  HIS209      0.0817
     30  ND1       12.9150    4.9340   16.9030 N.ar  209  HIS209     -0.2268
     31  CD2       13.0260    6.5130   18.4130 C.ar  209  HIS209      0.1154
     32  CE1       12.5990    6.0680   16.3020 C.ar  209  HIS209      0.1986
     33  NE2       12.6700    7.0430   17.1920 N.ar  209  HIS209     -0.2212
     34  N         13.2610    1.7650   15.0130 N.3   211  ASN211     -0.1225
     35  CA        14.6050    1.7110   14.4500 C.3   211  ASN211      0.1784
     36  C         15.5300    2.6750   15.1710 C.2   211  ASN211      0.2593
     37  O         15.4600    3.9070   14.9590 O.2   211  ASN211     -0.2718
     38  CB        14.5960    2.0180   12.9500 C.3   211  ASN211      0.1169
     39  CG        13.4310    1.3790   12.2270 C.2   211  ASN211      0.2627
     40  OD1       12.2590    1.7280   12.4670 O.2   211  ASN211     -0.2716
     41  ND2       13.7410    0.4400   11.3250 N.am  211  ASN211     -0.0877
     42  N         16.3360    2.1470   16.1900 N.am  212  TRP212     -0.2029
     43  CA        17.6530    2.7750   16.4190 C.3   212  TRP212      0.1326
     44  C         18.4090    2.0580   17.5550 C.3   212  TRP212      0.2039
     45  O         19.5530    1.5100   17.3290 O.3   212  TRP212     -0.2185
     46  CB        17.6130    4.3150   16.5850 C.3   212  TRP212      0.0523
     47  CG        19.0120    4.9290   16.5450 C.ar  212  TRP212      0.0002
     48  CD1       19.4460    6.0490   17.2300 C.ar  212  TRP212      0.0946
     49  CD2       20.1660    4.4390   15.8100 C.ar  212  TRP212      0.0152
     50  NE1       20.7860    6.2860   16.9590 N.ar  212  TRP212     -0.2442
     51  CE2       21.2530    5.3180   16.0980 C.ar  212  TRP212      0.0810
     52  CE3       20.3820    3.3480   14.9310 C.ar  212  TRP212      0.0012
     53  CZ2       22.5400    5.1380   15.5400 C.ar  212  TRP212      0.0191
     54  CZ3       21.6590    3.1600   14.3850 C.ar  212  TRP212      0.0001
     55  CH2       22.7240    4.0530   14.6970 C.ar  212  TRP212      0.0015
     56  N         19.2880    3.0780   21.5200 N.3   214  MET214     -0.1245
     57  CA        20.1830    4.0670   22.1420 C.3   214  MET214      0.1570
     58  C         19.8510    4.0750   23.6380 C.2   214  MET214      0.2261
     59  O         19.0220    3.2750   24.0810 O.2   214  MET214     -0.2867
     60  CB        20.0000    5.4660   21.5100 C.3   214  MET214      0.0387
     61  CG        18.5950    5.7310   20.9430 C.3   214  MET214      0.0595
     62  SD        18.3230    7.4120   20.2640 S.3   214  MET214     -0.1393
     63  CE        16.5640    7.3210   19.9390 C.3   214  MET214      0.0692
     64  N         17.8090    9.3500   26.3620 N.3   218  ILE218     -0.1245
     65  CA        17.6290    9.9220   25.0330 C.3   218  ILE218      0.1561
     66  C         16.4510    9.2700   24.2520 C.2   218  ILE218      0.2260
     67  O         15.8130    9.9340   23.4530 O.2   218  ILE218     -0.2867
     68  CB        18.9370    9.8840   24.2140 C.3   218  ILE218      0.0252
     69  CG1       18.7700   10.6430   22.8980 C.3   218  ILE218      0.0019
     70  CG2       19.3230    8.4350   23.8930 C.3   218  ILE218      0.0019
     71  CD1       20.1280   10.9930   22.2460 C.3   218  ILE218      0.0001
     72  N         13.4110   11.3460   22.8110 N.3   222  SER222     -0.1217
     73  CA        12.9690   11.1500   21.4240 C.3   222  SER222      0.1889
     74  C         11.4520   10.8930   21.3790 C.2   222  SER222      0.2288
     75  O         10.7770   11.4040   20.4720 O.2   222  SER222     -0.2866
     76  CB        13.7310    9.9830   20.7810 C.3   222  SER222      0.2089
     77  OG        13.1120    9.6170   19.5760 O.3   222  SER222     -0.2183
     78  N          9.8450   14.1970   22.0980 N.3   225  MET225     -0.1245
     79  CA        10.4740   15.2620   21.2760 C.3   225  MET225      0.1570
     80  C         11.1120   16.3730   22.0760 C.2   225  MET225      0.2261
     81  O         11.4220   17.4770   21.5570 O.2   225  MET225     -0.2867
     82  CB         9.5530   15.7770   20.1590 C.3   225  MET225      0.0387
     83  CG         9.4510   14.7370   19.0430 C.3   225  MET225      0.0595
     84  SD         8.6680   15.3230   17.5580 S.3   225  MET225     -0.1393
     85  CE        10.0420   16.1280   16.7640 C.3   225  MET225      0.0692
     86  N         14.0410   15.9440   22.9430 N.3   227  ASN227     -0.1225
     87  CA        15.3690   15.9440   22.3000 C.3   227  ASN227      0.1785
     88  C         15.4260   16.9790   21.1920 C.2   227  ASN227      0.2597
     89  O         16.3390   17.7810   21.1380 O.2   227  ASN227     -0.2718
     90  CB        15.7420   14.5600   21.7860 C.3   227  ASN227      0.1169
     91  CG        17.2050   14.4700   21.3580 C.2   227  ASN227      0.2627
     92  OD1       18.1180   14.7600   22.1470 O.2   227  ASN227     -0.2716
     93  ND2       17.4380   14.0610   20.1060 N.am  227  ASN227     -0.0877
     94  N         14.4170   16.9950   20.3350 N.am  228  LYS228     -0.1980
     95  CA        14.3160   18.0440   19.3050 C.3   228  LYS228      0.1596
     96  C         14.1280   19.4490   19.8940 C.2   228  LYS228      0.2287
     97  O         14.6120   20.4480   19.3450 O.2   228  LYS228     -0.2864
     98  CB        13.1940   17.6930   18.3160 C.3   228  LYS228      0.0298
     99  CG        13.4400   18.1550   16.8650 C.3   228  LYS228      0.0038
    100  CD        14.7680   17.5840   16.2050 C.3   228  LYS228      0.0206
    101  CE        15.0340   16.1710   16.6800 C.3   228  LYS228      0.1093
    102  NZ        16.3050   15.5750   16.1500 N.3   228  LYS228     -0.1314
    103  N         10.3940   10.3030    9.9480 N.3   252  PRO252     -0.2102
    104  CA        10.5240    9.0240   10.6350 C.3   252  PRO252      0.1504
    105  C         11.7440    8.1860   10.3080 C.2   252  PRO252      0.2576
    106  O         12.2910    7.5500   11.2110 O.2   252  PRO252     -0.2718
    107  CB         9.2310    8.2730   10.2510 C.3   252  PRO252      0.0282
    108  CG         8.2310    9.3760   10.0300 C.3   252  PRO252      0.0208
    109  CD         9.0690   10.4560    9.3080 C.3   252  PRO252      0.0893
    110  N         12.1690    8.1780    9.0410 N.am  253  GLN253     -0.1966
    111  CA        13.2570    7.3180    8.5720 C.3   253  GLN253      0.1733
    112  C         14.6640    7.8160    9.0040 C.2   253  GLN253      0.2617
    113  O         15.6490    7.0460    8.9810 O.2   253  GLN253     -0.2715
    114  CB        13.1780    7.1750    7.0480 C.3   253  GLN253      0.0408
    115  CG        11.8070    6.6290    6.5360 C.3   253  GLN253      0.0908
    116  CD        10.6420    7.6160    6.5920 C.2   253  GLN253      0.2608
    117  OE1        9.4770    7.2200    6.7800 O.2   253  GLN253     -0.2717
    118  NE2       10.9150    8.8620    6.3900 N.am  253  GLN253     -0.0878
    119  N         14.7380    9.0950    9.3770 N.am  254  SER254     -0.1950
    120  CA        15.9680    9.7540    9.8510 C.3   254  SER254      0.1924
    121  C         17.1440    9.5770    8.8940 C.2   254  SER254      0.2314
    122  O         18.3210    9.4680    9.3170 O.2   254  SER254     -0.2863
    123  CB        16.3500    9.2570   11.2400 C.3   254  SER254      0.2116
    124  OG        15.1700    9.1980   12.0450 O.3   254  SER254     -0.2180
    125  N         23.1870    6.1460    9.8740 N.3   274  PRO274     -0.2116
    126  CA        23.0890    6.5960   11.2510 C.3   274  PRO274      0.1372
    127  C         24.3240    6.1160   12.0430 C.2   274  PRO274      0.2244
    128  O         24.3390    5.0170   12.5920 O.2   274  PRO274     -0.2868
    129  CB        21.7790    5.9430   11.7440 C.3   274  PRO274      0.0268
    130  CG        21.6810    4.6880   10.9810 C.3   274  PRO274      0.0207
    131  CD        22.3050    4.9840    9.6130 C.3   274  PRO274      0.0892
@<TRIPOS>BOND
     1   118   116   am
     2   115   116    1
     3   115   114    1
     4   116   117    2
     5   114   111    1
     6   111   112    1
     7   111   110    1
     8   121   122    2
     9   121   120    1
    10   113   112    2
    11   112   119   am
    12   110   105   am
    13   109   103    1
    14   109   108    1
    15   119   120    1
    16   131   125    1
    17   131   130    1
    18   120   123    1
    19   125   126    1
    20   103   104    1
    21   108   107    1
    22   107   104    1
    23   105   104    1
    24   105   106    2
    25   130   129    1
    26   123   124    1
    27   126   129    1
    28   126   127    1
    29    41    39   am
    30     4     3    2
    31   127   128    2
    32    39    40    2
    33    39    38    1
    34     3     2    1
    35    38    35    1
    36    13    12    2
    37    10    11    1
    38     2     1    1
    39     2     5    1
    40    12    11    1
    41    12    14   am
    42    17    16    2
    43    15    14    1
    44    15    16    1
    45    15    18    1
    46     6     5    1
    47     6     7    1
    48    54    55   ar
    49    54    52   ar
    50    35    34    1
    51    35    36    1
    52    16    20   am
    53    18    19    1
    54    55    53   ar
    55     8     7   ar
    56     7     9   ar
    57    52    49   ar
    58    37    36    2
    59    36    42   am
    60    20    21    1
    61    53    51   ar
    62    49    51   ar
    63    49    47   ar
    64    21    22    1
    65    51    50   ar
    66   102   101    1
    67    42    43    1
    68   100   101    1
    69   100    99    1
    70    32    30   ar
    71    32    33   ar
    72    43    46    1
    73    43    44    1
    74    47    46    1
    75    47    48   ar
    76    85    84    1
    77    99    98    1
    78    30    29   ar
    79    50    48   ar
    80    22    23    2
    81    33    31   ar
    82    45    44    1
    83    84    83    1
    84    29    31   ar
    85    29    28    1
    86    26    27    2
    87    26    25    1
    88    98    95    1
    89    83    82    1
    90    28    25    1
    91    95    96    1
    92    95    94    1
    93    97    96    2
    94    25    24    1
    95    77    76    1
    96    63    62    1
    97    93    91   am
    98    82    79    1
    99    62    61    1
   100    94    88   am
   101    75    74    2
   102    76    73    1
   103    61    60    1
   104    89    88    2
   105    88    87    1
   106    79    80    1
   107    79    78    1
   108    91    90    1
   109    91    92    2
   110    74    73    1
   111    73    72    1
   112    60    57    1
   113    56    57    1
   114    81    80    2
   115    90    87    1
   116    57    58    1
   117    71    69    1
   118    87    86    1
   119    69    68    1
   120    67    66    2
   121    58    59    2
   122    70    68    1
   123    68    65    1
   124    66    65    1
   125    65    64    1
