@<TRIPOS>MOLECULE
tmp/3annA01.pdb
 124 119 0 0 0
SMALL
GASTEIGER

@<TRIPOS>ATOM
      1  N        -18.9730  -21.6270  -13.7630 N.3   151  SER151     -0.1202
      2  CA       -18.5730  -21.3570  -12.3600 C.3   151  SER151      0.2020
      3  C        -19.5150  -20.3630  -11.6270 C.2   151  SER151      0.2618
      4  O        -19.9860  -20.6250  -10.5030 O.2   151  SER151     -0.2717
      5  CB       -17.1260  -20.8520  -12.3240 C.3   151  SER151      0.2103
      6  OG       -16.7400  -20.6400  -10.9830 O.3   151  SER151     -0.2182
      7  N        -19.8250  -19.2670  -12.2940 N.am  152  GLU152     -0.1979
      8  CA       -20.6760  -18.2000  -11.7350 C.3   152  GLU152      0.1602
      9  C        -22.1160  -18.6450  -11.5310 C.2   152  GLU152      0.2287
     10  O        -22.6880  -18.4100  -10.4640 O.2   152  GLU152     -0.2864
     11  CB       -20.6590  -16.9580  -12.6150 C.3   152  GLU152      0.0415
     12  CG       -19.2780  -16.2170  -12.5920 C.3   152  GLU152      0.1163
     13  CD       -18.2450  -16.8510  -13.5380 C.2   152  GLU152      0.3649
     14  OE1      -17.0970  -16.3630  -13.6010 O.co2 152  GLU152     -0.2457
     15  OE2      -18.5860  -17.8180  -14.2450 O.co2 152  GLU152     -0.2457
     16  N        -17.3110  -10.7890  -11.6550 N.3   185  GLY185     -0.1210
     17  CA       -16.3730  -10.9230  -12.7900 C.3   185  GLY185      0.1956
     18  C        -15.0230  -10.2940  -12.4460 C.2   185  GLY185      0.2613
     19  O        -14.9690   -9.3820  -11.6500 O.2   185  GLY185     -0.2717
     20  N        -13.9420  -10.7870  -13.0330 N.am  186  SER186     -0.1938
     21  CA       -12.5930  -10.3310  -12.6830 C.3   186  SER186      0.2055
     22  C        -12.3210   -8.9010  -13.0650 C.2   186  SER186      0.2643
     23  O        -11.4770   -8.2550  -12.4270 O.2   186  SER186     -0.2714
     24  CB       -11.5370  -11.2350  -13.3300 C.3   186  SER186      0.2130
     25  OG       -11.4180  -10.9540  -14.7230 O.3   186  SER186     -0.2179
     26  N        -13.0350   -8.3870  -14.0710 N.am  187  GLY187     -0.1954
     27  CA       -12.6820   -7.0740  -14.6680 C.3   187  GLY187      0.1869
     28  C        -11.5750   -7.0820  -15.7190 C.2   187  GLY187      0.2309
     29  O        -11.2830   -6.0250  -16.3380 O.2   187  GLY187     -0.2863
     30  N         -4.2740  -12.1840  -19.1150 N.3   209  HIS209     -0.1241
     31  CA        -4.9480  -12.0800  -17.8160 C.3   209  HIS209      0.1621
     32  C         -3.7830  -12.1920  -16.8020 C.2   209  HIS209      0.2264
     33  O         -3.0710  -13.2010  -16.8070 O.2   209  HIS209     -0.2867
     34  CB        -6.1020  -13.0660  -17.6750 C.3   209  HIS209      0.0745
     35  CG        -7.1350  -12.5880  -16.7150 C.ar  209  HIS209      0.0817
     36  ND1       -8.3470  -12.0610  -17.1220 N.ar  209  HIS209     -0.2268
     37  CD2       -7.0970  -12.4650  -15.3630 C.ar  209  HIS209      0.1154
     38  CE1       -9.0290  -11.6840  -16.0520 C.ar  209  HIS209      0.1986
     39  NE2       -8.2990  -11.9210  -14.9750 N.ar  209  HIS209     -0.2212
     40  N         -4.6490  -13.3200  -13.8420 N.3   211  ASN211     -0.1225
     41  CA        -4.9950  -14.3740  -12.9290 C.3   211  ASN211      0.1785
     42  C         -5.6560  -15.5500  -13.6020 C.2   211  ASN211      0.2597
     43  O         -6.4460  -16.2750  -12.9860 O.2   211  ASN211     -0.2718
     44  CB        -5.8390  -13.8270  -11.7790 C.3   211  ASN211      0.1169
     45  CG        -5.9200  -14.7950  -10.6270 C.2   211  ASN211      0.2627
     46  OD1       -4.9310  -15.4710  -10.2910 O.2   211  ASN211     -0.2716
     47  ND2       -7.0920  -14.8910  -10.0260 N.am  211  ASN211     -0.0877
     48  N         -5.2860  -15.7740  -14.8610 N.am  212  TRP212     -0.1976
     49  CA        -5.9670  -16.7820  -15.6480 C.3   212  TRP212      0.1640
     50  C         -5.0680  -17.2060  -16.7720 C.2   212  TRP212      0.2290
     51  O         -4.2250  -16.4210  -17.2330 O.2   212  TRP212     -0.2864
     52  CB        -7.2200  -16.1590  -16.2330 C.3   212  TRP212      0.0576
     53  CG        -8.4480  -17.0240  -16.3030 C.ar  212  TRP212      0.0006
     54  CD1       -8.7900  -18.0730  -15.4910 C.ar  212  TRP212      0.0946
     55  CD2       -9.5250  -16.8500  -17.2200 C.ar  212  TRP212      0.0152
     56  NE1      -10.0140  -18.5810  -15.8750 N.ar  212  TRP212     -0.2442
     57  CE2      -10.4900  -17.8350  -16.9250 C.ar  212  TRP212      0.0810
     58  CE3       -9.7700  -15.9420  -18.2640 C.ar  212  TRP212      0.0012
     59  CZ2      -11.6810  -17.9460  -17.6400 C.ar  212  TRP212      0.0191
     60  CZ3      -10.9420  -16.0380  -18.9670 C.ar  212  TRP212      0.0001
     61  CH2      -11.8900  -17.0440  -18.6620 C.ar  212  TRP212      0.0015
     62  N        -13.1310  -11.5030  -21.4030 N.3   222  SER222     -0.1217
     63  CA       -12.8570  -11.0890  -20.0350 C.3   222  SER222      0.1889
     64  C        -12.4210   -9.6120  -19.9630 C.2   222  SER222      0.2288
     65  O        -12.8890   -8.8490  -19.0680 O.2   222  SER222     -0.2866
     66  CB       -11.8010  -12.0220  -19.4080 C.3   222  SER222      0.2089
     67  OG       -11.4400  -11.5950  -18.0950 O.3   222  SER222     -0.2183
     68  N        -15.3300   -7.3480  -20.6770 N.3   225  MET225     -0.1245
     69  CA       -16.4850   -7.8200  -19.9100 C.3   225  MET225      0.1570
     70  C        -17.6960   -8.2530  -20.7730 C.2   225  MET225      0.2261
     71  O        -18.8290   -8.3690  -20.2820 O.2   225  MET225     -0.2867
     72  CB       -16.8800   -6.8650  -18.7740 C.3   225  MET225      0.0387
     73  CG       -15.8260   -6.8640  -17.6440 C.3   225  MET225      0.0595
     74  SD       -16.4100   -6.0380  -16.1430 S.3   225  MET225     -0.1393
     75  CE       -17.4280   -7.3590  -15.4590 C.3   225  MET225      0.0692
     76  N        -17.7060  -11.3020  -21.5800 N.3   227  ASN227     -0.1225
     77  CA       -17.9700  -12.5740  -20.9120 C.3   227  ASN227      0.1785
     78  C        -19.0490  -12.4490  -19.8490 C.2   227  ASN227      0.2597
     79  O        -19.9810  -13.2150  -19.8310 O.2   227  ASN227     -0.2718
     80  CB       -16.6920  -13.1720  -20.3050 C.3   227  ASN227      0.1169
     81  CG       -16.8840  -14.6200  -19.8070 C.2   227  ASN227      0.2627
     82  OD1      -16.5280  -14.9680  -18.6450 O.2   227  ASN227     -0.2716
     83  ND2      -17.3790  -15.4820  -20.6880 N.am  227  ASN227     -0.0877
     84  N        -18.9430  -11.4460  -18.9860 N.am  228  LYS228     -0.1980
     85  CA       -19.9570  -11.2080  -17.9570 C.3   228  LYS228      0.1596
     86  C        -21.2900  -10.7540  -18.5450 C.2   228  LYS228      0.2287
     87  O        -22.3540  -11.0420  -17.9910 O.2   228  LYS228     -0.2864
     88  CB       -19.4290  -10.1580  -16.9680 C.3   228  LYS228      0.0298
     89  CG       -19.6660  -10.4970  -15.4910 C.3   228  LYS228      0.0038
     90  CD       -19.4930  -11.9890  -15.1230 C.3   228  LYS228      0.0206
     91  CE       -18.0410  -12.4070  -15.3130 C.3   228  LYS228      0.1093
     92  NZ       -17.6880  -13.7110  -14.6640 N.3   228  LYS228     -0.1314
     93  N        -10.0670  -10.9400   -7.6800 N.3   253  GLN253     -0.1231
     94  CA        -9.3410  -12.1150   -7.2400 C.3   253  GLN253      0.1698
     95  C        -10.0350  -13.4140   -7.6470 C.2   253  GLN253      0.2592
     96  O         -9.4330  -14.4930   -7.5920 O.2   253  GLN253     -0.2718
     97  CB        -9.1010  -12.0520   -5.7200 C.3   253  GLN253      0.0381
     98  CG        -8.2660  -10.7860   -5.2970 C.3   253  GLN253      0.0905
     99  CD        -9.0620   -9.5110   -5.2610 C.2   253  GLN253      0.2608
    100  OE1       -8.5170   -8.3820   -5.4130 O.2   253  GLN253     -0.2717
    101  NE2      -10.3470   -9.6500   -5.0590 N.am  253  GLN253     -0.0878
    102  N        -11.3030  -13.2920   -8.0420 N.am  254  SER254     -0.1952
    103  CA       -12.1010  -14.4190   -8.5340 C.3   254  SER254      0.1924
    104  C        -12.2290  -15.5660   -7.5340 C.2   254  SER254      0.2314
    105  O        -12.3920  -16.7160   -7.9240 O.2   254  SER254     -0.2863
    106  CB       -11.5320  -14.9320   -9.8720 C.3   254  SER254      0.2116
    107  OG       -11.5690  -13.8920  -10.8380 O.3   254  SER254     -0.2180
    108  N        -17.1520  -16.8620   -6.3260 N.3   257  HIS257     -0.1241
    109  CA       -17.5710  -17.1640   -7.7130 C.3   257  HIS257      0.1621
    110  C        -18.8920  -16.5020   -8.1430 C.2   257  HIS257      0.2264
    111  O        -19.1310  -16.3420   -9.3190 O.2   257  HIS257     -0.2867
    112  CB       -17.6170  -18.6680   -7.9160 C.3   257  HIS257      0.0745
    113  CG       -16.2690  -19.3010   -7.8390 C.ar  257  HIS257      0.0817
    114  ND1      -15.1260  -18.6440   -8.2440 N.ar  257  HIS257     -0.2268
    115  CD2      -15.8750  -20.5240   -7.4250 C.ar  257  HIS257      0.1154
    116  CE1      -14.0800  -19.4330   -8.0650 C.ar  257  HIS257      0.1986
    117  NE2      -14.5090  -20.5770   -7.5700 N.ar  257  HIS257     -0.2212
    118  N         -9.9520  -22.0780   -8.7020 N.3   274  PRO274     -0.2116
    119  CA       -10.4860  -22.0060  -10.0480 C.3   274  PRO274      0.1372
    120  C        -10.2380  -23.3010  -10.7600 C.2   274  PRO274      0.2244
    121  O         -9.2450  -23.4040  -11.5140 O.2   274  PRO274     -0.2868
    122  CB        -9.6180  -20.9450  -10.7360 C.3   274  PRO274      0.0268
    123  CG        -8.5050  -20.6350   -9.8360 C.3   274  PRO274      0.0207
    124  CD        -8.5850  -21.5440   -8.6240 C.3   274  PRO274      0.0892
@<TRIPOS>BOND
     1    76    77    1
     2    62    63    1
     3    77    80    1
     4    77    78    1
     5    70    71    2
     6    70    69    1
     7    83    81   am
     8    68    69    1
     9    80    81    1
    10    63    64    1
    11    63    66    1
    12    64    65    2
    13    69    72    1
    14    78    79    2
    15    78    84   am
    16    81    82    2
    17    66    67    1
    18    30    31    1
    19    84    85    1
    20    60    61   ar
    21    60    58   ar
    22    72    73    1
    23    61    59   ar
    24    86    87    2
    25    86    85    1
    26    58    55   ar
    27    85    88    1
    28    31    34    1
    29    31    32    1
    30    34    35    1
    31    73    74    1
    32    59    57   ar
    33    51    50    2
    34    55    57   ar
    35    55    53   ar
    36    36    35   ar
    37    36    38   ar
    38    88    89    1
    39    57    56   ar
    40    33    32    2
    41    50    49    1
    42    35    37   ar
    43    29    28    2
    44    53    52    1
    45    53    54   ar
    46    52    49    1
    47    74    75    1
    48    38    39   ar
    49    56    54   ar
    50    28    27    1
    51    49    48    1
    52    89    90    1
    53    37    39   ar
    54    91    90    1
    55    91    92    1
    56    48    42   am
    57    25    24    1
    58    27    26    1
    59    15    13   ar
    60    26    22   am
    61    40    41    1
    62     1     2    1
    63    42    43    2
    64    42    41    1
    65    14    13   ar
    66    13    12    1
    67    24    21    1
    68    22    21    1
    69    22    23    2
    70    20    21    1
    71    20    18   am
    72    41    44    1
    73    17    18    1
    74    17    16    1
    75    11    12    1
    76    11     8    1
    77    18    19    2
    78     2     5    1
    79     2     3    1
    80     5     6    1
    81     7     8    1
    82     7     3   am
    83    44    45    1
    84     8     9    1
    85     3     4    2
    86     9    10    2
    87   121   120    2
    88   107   106    1
    89   120   119    1
    90   122   119    1
    91   122   123    1
    92    45    46    2
    93    45    47   am
    94   119   118    1
    95   106   103    1
    96   123   124    1
    97   111   110    2
    98   118   124    1
    99   103   102    1
   100   103   104    1
   101   114   116   ar
   102   114   113   ar
   103   110   109    1
   104   116   117   ar
   105   102    95   am
   106   105   104    2
   107   112   113    1
   108   112   109    1
   109   113   115   ar
   110   109   108    1
   111    93    94    1
   112    95    96    2
   113    95    94    1
   114   117   115   ar
   115    94    97    1
   116    97    98    1
   117   100    99    2
   118    98    99    1
   119    99   101   am
