@<TRIPOS>MOLECULE
tmp/3anpB01.pdb
 157 147 0 0 0
SMALL
GASTEIGER

@<TRIPOS>ATOM
      1  N         38.7630   91.5390   30.0700 N.3    52  GLY52      -0.1225
      2  CA        38.0150   90.4560   29.4460 C.3    52  GLY52       0.1811
      3  C         38.6510   89.0920   29.6620 C.2    52  GLY52       0.2280
      4  O         37.9670   88.1110   29.9440 O.2    52  GLY52      -0.2866
      5  N         37.7810   87.8890   33.0720 N.3    55  LEU55      -0.1231
      6  CA        36.4040   87.4370   33.2010 C.3    55  LEU55       0.1693
      7  C         36.3080   86.0250   32.6300 C.2    55  LEU55       0.2591
      8  O         35.6850   85.1360   33.2130 O.2    55  LEU55      -0.2718
      9  CB        35.4690   88.3710   32.4340 C.3    55  LEU55       0.0284
     10  CG        35.4200   89.8050   32.9730 C.3    55  LEU55       0.0019
     11  CD1       34.5870   90.6640   32.0340 C.3    55  LEU55       0.0001
     12  CD2       34.8290   89.8210   34.3940 C.3    55  LEU55       0.0001
     13  N         36.9570   85.8160   31.4950 N.am   56  LEU56      -0.1980
     14  CA        36.9230   84.5090   30.8620 C.3    56  LEU56       0.1596
     15  C         37.5890   83.4470   31.7300 C.2    56  LEU56       0.2287
     16  O         37.1270   82.3090   31.7740 O.2    56  LEU56      -0.2864
     17  CB        37.5900   84.5670   29.4820 C.3    56  LEU56       0.0297
     18  CG        37.5070   83.2710   28.6690 C.3    56  LEU56       0.0022
     19  CD1       36.0450   82.8980   28.4230 C.3    56  LEU56       0.0001
     20  CD2       38.2520   83.4490   27.3510 C.3    56  LEU56       0.0001
     21  N         35.0930   82.3340   34.1990 N.3    59  LEU59      -0.1245
     22  CA        34.1120   81.4380   33.5960 C.3    59  LEU59       0.1561
     23  C         34.7220   80.0440   33.4120 C.2    59  LEU59       0.2260
     24  O         34.0760   79.0270   33.6660 O.2    59  LEU59      -0.2867
     25  CB        33.6740   81.9810   32.2320 C.3    59  LEU59       0.0270
     26  CG        32.8700   83.2820   32.2450 C.3    59  LEU59       0.0019
     27  CD1       32.6600   83.8000   30.8150 C.3    59  LEU59       0.0001
     28  CD2       31.5410   83.0190   32.9260 C.3    59  LEU59       0.0001
     29  N         25.1040   83.0520   32.3360 N.3    83  VAL83      -0.1231
     30  CA        26.1040   83.8910   32.9860 C.3    83  VAL83       0.1692
     31  C         26.5990   84.9800   32.0400 C.2    83  VAL83       0.2591
     32  O         26.7400   86.1380   32.4330 O.2    83  VAL83      -0.2718
     33  CB        27.3140   83.0550   33.4710 C.3    83  VAL83       0.0266
     34  CG1       28.4280   83.9720   33.9610 C.3    83  VAL83       0.0020
     35  CG2       26.8770   82.1350   34.6080 C.3    83  VAL83       0.0020
     36  N         26.8780   84.6140   30.7920 N.am   84  LEU84      -0.1980
     37  CA        27.3500   85.6110   29.8280 C.3    84  LEU84       0.1596
     38  C         26.3040   86.6910   29.5770 C.2    84  LEU84       0.2287
     39  O         26.6340   87.8800   29.4810 O.2    84  LEU84      -0.2864
     40  CB        27.7270   84.9390   28.4950 C.3    84  LEU84       0.0297
     41  CG        29.0820   84.2320   28.4160 C.3    84  LEU84       0.0022
     42  CD1       29.1560   83.4130   27.1350 C.3    84  LEU84       0.0001
     43  CD2       30.2090   85.2620   28.4660 C.3    84  LEU84       0.0001
     44  N         26.2020   88.9870   32.7150 N.3    87  GLY87      -0.1210
     45  CA        27.3900   89.8170   32.7890 C.3    87  GLY87       0.1956
     46  C         27.4530   90.8820   31.7160 C.2    87  GLY87       0.2612
     47  O         27.8160   92.0280   31.9930 O.2    87  GLY87      -0.2717
     48  N         27.1120   90.5140   30.4830 N.am   88  THR88      -0.1952
     49  CA        27.1370   91.4710   29.3870 C.3    88  THR88       0.1897
     50  C         26.1860   92.6210   29.6860 C.2    88  THR88       0.2313
     51  O         26.5110   93.7900   29.4460 O.2    88  THR88      -0.2863
     52  CB        26.7220   90.8160   28.0520 C.3    88  THR88       0.1794
     53  OG1       27.6180   89.7470   27.7540 O.3    88  THR88      -0.2208
     54  CG2       26.7580   91.8310   26.9210 C.3    88  THR88       0.0378
     55  N         27.7510   94.9340   32.4350 N.3    91  GLU91      -0.1245
     56  CA        28.9350   95.6910   32.0730 C.3    91  GLU91       0.1567
     57  C         28.9400   96.1300   30.6120 C.2    91  GLU91       0.2260
     58  O         29.9980   96.2540   30.0020 O.2    91  GLU91      -0.2867
     59  CB        30.1780   94.8540   32.3920 C.3    91  GLU91       0.0388
     60  CG        30.4720   94.6890   33.8970 C.3    91  GLU91       0.1160
     61  CD        30.6730   96.0340   34.5970 C.2    91  GLU91       0.3649
     62  OE1       31.2260   96.9540   33.9460 O.co2  91  GLU91      -0.2457
     63  OE2       30.2910   96.1720   35.7900 O.co2  91  GLU91      -0.2457
     64  N         32.1410   96.7790   28.0800 N.3    95  LEU95      -0.1245
     65  CA        32.3410   95.6630   27.1600 C.3    95  LEU95       0.1561
     66  C         32.1880   96.0280   25.6750 C.2    95  LEU95       0.2260
     67  O         32.7990   95.3900   24.8090 O.2    95  LEU95      -0.2867
     68  CB        31.3760   94.5290   27.5010 C.3    95  LEU95       0.0270
     69  CG        31.5860   93.8430   28.8560 C.3    95  LEU95       0.0019
     70  CD1       30.4700   92.8070   29.0720 C.3    95  LEU95       0.0001
     71  CD2       32.9570   93.1730   28.9030 C.3    95  LEU95       0.0001
     72  N         34.3060   94.7270   22.5870 N.3    98  PHE98      -0.1241
     73  CA        33.7640   93.9600   21.4610 C.3    98  PHE98       0.1605
     74  C         34.2300   94.5750   20.1510 C.2    98  PHE98       0.2264
     75  O         34.5710   93.8560   19.2120 O.2    98  PHE98      -0.2867
     76  CB        32.2280   93.9380   21.4540 C.3    98  PHE98       0.0534
     77  CG        31.6090   93.1770   22.6040 C.ar   98  PHE98      -0.0203
     78  CD1       32.2110   92.0260   23.1110 C.ar   98  PHE98      -0.0042
     79  CD2       30.3980   93.5970   23.1530 C.ar   98  PHE98      -0.0042
     80  CE1       31.6140   91.3030   24.1470 C.ar   98  PHE98      -0.0003
     81  CE2       29.7870   92.8830   24.1920 C.ar   98  PHE98      -0.0003
     82  CZ        30.3980   91.7320   24.6920 C.ar   98  PHE98      -0.0000
     83  N         37.6180   93.6370   18.8470 N.3   101  LEU101     -0.1245
     84  CA        37.7000   92.3300   18.2160 C.3   101  LEU101      0.1561
     85  C         37.6190   92.4570   16.6930 C.2   101  LEU101      0.2260
     86  O         38.0520   91.5610   15.9660 O.2   101  LEU101     -0.2867
     87  CB        36.5900   91.4100   18.7250 C.3   101  LEU101      0.0270
     88  CG        36.9470   90.6480   20.0000 C.3   101  LEU101      0.0019
     89  CD1       35.6860   90.1040   20.6640 C.3   101  LEU101      0.0001
     90  CD2       37.9160   89.5120   19.6490 C.3   101  LEU101      0.0001
     91  N         41.4220   88.5740   19.7450 N.3   113  PHE113     -0.1241
     92  CA        40.8920   87.2180   19.6300 C.3   113  PHE113      0.1605
     93  C         41.5990   86.2750   20.5980 C.2   113  PHE113      0.2264
     94  O         40.9550   85.4790   21.2860 O.2   113  PHE113     -0.2867
     95  CB        41.0650   86.7010   18.1970 C.3   113  PHE113      0.0534
     96  CG        40.5110   85.3140   17.9810 C.ar  113  PHE113     -0.0203
     97  CD1       39.1530   85.1170   17.7590 C.ar  113  PHE113     -0.0042
     98  CD2       41.3430   84.2020   18.0430 C.ar  113  PHE113     -0.0042
     99  CE1       38.6280   83.8340   17.6070 C.ar  113  PHE113     -0.0003
    100  CE2       40.8270   82.9100   17.8930 C.ar  113  PHE113     -0.0003
    101  CZ        39.4640   82.7300   17.6760 C.ar  113  PHE113     -0.0000
    102  N         40.6110   86.6970   24.2590 N.3   116  LEU116     -0.1245
    103  CA        39.2320   86.3150   24.5950 C.3   116  LEU116      0.1561
    104  C         38.7810   85.0140   23.9360 C.2   116  LEU116      0.2260
    105  O         37.7550   84.9700   23.2620 O.2   116  LEU116     -0.2867
    106  CB        38.2870   87.4500   24.1680 C.3   116  LEU116      0.0270
    107  CG        38.7180   88.8420   24.6440 C.3   116  LEU116      0.0019
    108  CD1       37.8220   89.8700   24.0000 C.3   116  LEU116      0.0001
    109  CD2       38.6430   88.9370   26.1770 C.3   116  LEU116      0.0001
    110  N         36.7620   82.5120   23.9070 N.3   118  LEU118     -0.1231
    111  CA        35.5230   81.8920   24.3790 C.3   118  LEU118      0.1693
    112  C         35.2220   80.6070   23.5960 C.2   118  LEU118      0.2592
    113  O         34.6820   79.6460   24.1500 O.2   118  LEU118     -0.2718
    114  CB        34.3320   82.8610   24.2240 C.3   118  LEU118      0.0284
    115  CG        32.9270   82.2790   24.4600 C.3   118  LEU118      0.0019
    116  CD1       32.8070   81.8130   25.9060 C.3   118  LEU118      0.0001
    117  CD2       31.8480   83.3320   24.1420 C.3   118  LEU118      0.0001
    118  N         35.5530   80.6050   22.3070 N.am  119  GLY119     -0.1957
    119  CA        35.2920   79.4360   21.4730 C.3   119  GLY119      0.1869
    120  C         35.9820   78.1850   21.9800 C.2   119  GLY119      0.2309
    121  O         35.4190   77.0850   21.9550 O.2   119  GLY119     -0.2863
    122  N         30.5960   80.8250   19.7010 N.3   148  ALA148     -0.1231
    123  CA        31.1560   82.0170   20.3360 C.3   148  ALA148      0.1694
    124  C         30.8950   83.2000   19.3990 C.2   148  ALA148      0.2592
    125  O         30.6110   84.3180   19.8420 O.2   148  ALA148     -0.2718
    126  CB        32.6670   81.8300   20.5570 C.3   148  ALA148      0.0304
    127  N         30.9810   82.9540   18.0950 N.am  149  ASP149     -0.1974
    128  CA        30.7260   84.0240   17.1230 C.3   149  ASP149      0.1709
    129  C         29.2870   84.5310   17.2500 C.2   149  ASP149      0.2293
    130  O         29.0350   85.7410   17.1550 O.2   149  ASP149     -0.2864
    131  CB        30.9570   83.5330   15.6900 C.3   149  ASP149      0.1436
    132  CG        32.4300   83.3800   15.3460 C.2   149  ASP149      0.3671
    133  OD1       33.2860   83.9640   16.0400 O.co2 149  ASP149     -0.2456
    134  OD2       32.7220   82.6840   14.3570 O.co2 149  ASP149     -0.2456
    135  N         27.4830   84.4010   19.9370 N.3   151  TYR151     -0.1227
    136  CA        27.3850   85.1750   21.1800 C.3   151  TYR151      0.1736
    137  C         27.8800   86.6010   20.8900 C.2   151  TYR151      0.2595
    138  O         27.2620   87.5950   21.2890 O.2   151  TYR151     -0.2718
    139  CB        28.2630   84.5710   22.2750 C.3   151  TYR151      0.0548
    140  CG        28.5850   85.5740   23.3620 C.ar  151  TYR151     -0.0200
    141  CD1       27.5930   86.0250   24.2350 C.ar  151  TYR151     -0.0009
    142  CD2       29.8580   86.1440   23.4540 C.ar  151  TYR151     -0.0009
    143  CE1       27.8610   87.0270   25.1750 C.ar  151  TYR151      0.0417
    144  CE2       30.1290   87.1540   24.3770 C.ar  151  TYR151      0.0417
    145  CZ        29.1250   87.5920   25.2310 C.ar  151  TYR151      0.1957
    146  OH        29.3760   88.6360   26.1020 O.3   151  TYR151     -0.2866
    147  N         29.0130   86.6900   20.2050 N.am  152  PHE152     -0.1976
    148  CA        29.5850   87.9920   19.8610 C.3   152  PHE152      0.1639
    149  C         28.6100   88.8630   19.0810 C.2   152  PHE152      0.2290
    150  O         28.3940   90.0300   19.4160 O.2   152  PHE152     -0.2864
    151  CB        30.8500   87.8140   19.0330 C.3   152  PHE152      0.0560
    152  CG        31.4280   89.1060   18.5440 C.ar  152  PHE152     -0.0200
    153  CD1       32.1640   89.9210   19.3970 C.ar  152  PHE152     -0.0042
    154  CD2       31.2330   89.5130   17.2240 C.ar  152  PHE152     -0.0042
    155  CE1       32.7100   91.1350   18.9370 C.ar  152  PHE152     -0.0003
    156  CE2       31.7710   90.7210   16.7570 C.ar  152  PHE152     -0.0003
    157  CZ        32.5120   91.5300   17.6140 C.ar  152  PHE152     -0.0000
@<TRIPOS>BOND
     1   134   132   ar
     2   132   131    1
     3   132   133   ar
     4   131   128    1
     5    86    85    2
     6    85    84    1
     7   156   154   ar
     8   156   157   ar
     9   128   129    1
    10   128   127    1
    11   130   129    2
    12   154   152   ar
    13    99   101   ar
    14    99    97   ar
    15   157   155   ar
    16   101   100   ar
    17    97    96   ar
    18   100    98   ar
    19    96    98   ar
    20    96    95    1
    21   127   124   am
    22    95    92    1
    23    84    87    1
    24    84    83    1
    25   152   151    1
    26   152   153   ar
    27    87    88    1
    28   155   153   ar
    29   151   148    1
    30   149   150    2
    31   149   148    1
    32    75    74    2
    33   124   125    2
    34   124   123    1
    35    92    91    1
    36    92    93    1
    37    90    88    1
    38   122   123    1
    39   148   147    1
    40   135   136    1
    41    88    89    1
    42    74    73    1
    43   147   137   am
    44   123   126    1
    45    93    94    2
    46   137   136    1
    47   137   138    2
    48   136   139    1
    49    76    73    1
    50    76    77    1
    51    73    72    1
    52   119   120    1
    53   119   118    1
    54   121   120    2
    55   139   140    1
    56   118   112   am
    57    77    78   ar
    58    77    79   ar
    59    78    80   ar
    60    79    81   ar
    61   105   104    2
    62   140   142   ar
    63   140   141   ar
    64   142   144   ar
    65   112   113    2
    66   112   111    1
    67   110   111    1
    68   104   103    1
    69   108   107    1
    70   117   115    1
    71    80    82   ar
    72   106   103    1
    73   106   107    1
    74    81    82   ar
    75   114   111    1
    76   114   115    1
    77   141   143   ar
    78   102   103    1
    79   144   145   ar
    80   115   116    1
    81   107   109    1
    82    67    66    2
    83   143   145   ar
    84   145   146    1
    85    66    65    1
    86    54    52    1
    87    42    41    1
    88    65    68    1
    89    65    64    1
    90    20    18    1
    91    68    69    1
    92    53    52    1
    93    52    49    1
    94    41    43    1
    95    41    40    1
    96    19    18    1
    97    40    37    1
    98    18    17    1
    99    69    71    1
   100    69    70    1
   101    49    50    1
   102    49    48    1
   103    51    50    2
   104     2     3    1
   105     2     1    1
   106    39    38    2
   107    17    14    1
   108    38    37    1
   109     3     4    2
   110    37    36    1
   111    58    57    2
   112    48    46   am
   113    57    56    1
   114    36    31   am
   115    27    26    1
   116    14    13    1
   117    14    15    1
   118    13     7   am
   119    46    47    2
   120    46    45    1
   121    15    16    2
   122    11    10    1
   123    31    32    2
   124    31    30    1
   125    56    59    1
   126    56    55    1
   127    25    26    1
   128    25    22    1
   129    26    28    1
   130    29    30    1
   131    59    60    1
   132     9    10    1
   133     9     6    1
   134     7     6    1
   135     7     8    2
   136    44    45    1
   137    10    12    1
   138    30    33    1
   139     5     6    1
   140    23    22    1
   141    23    24    2
   142    33    34    1
   143    33    35    1
   144    22    21    1
   145    60    61    1
   146    62    61   ar
   147    61    63   ar
