@<TRIPOS>MOLECULE
tmp/3anqB00.pdb
 159 149 0 0 0
SMALL
GASTEIGER

@<TRIPOS>ATOM
      1  N        -13.9800   17.0100   41.6100 N.3    33  ILE33      -0.1231
      2  CA       -13.4170   17.4330   42.8950 C.3    33  ILE33       0.1692
      3  C        -12.0750   18.1120   42.7440 C.2    33  ILE33       0.2593
      4  O        -11.4830   18.5220   43.7230 O.2    33  ILE33      -0.2718
      5  CB       -13.2520   16.2710   43.9210 C.3    33  ILE33       0.0266
      6  CG1      -12.4050   15.1490   43.3510 C.3    33  ILE33       0.0019
      7  CG2      -14.6080   15.7690   44.3400 C.3    33  ILE33       0.0020
      8  CD1      -12.1010   14.0420   44.3700 C.3    33  ILE33       0.0001
      9  N        -11.5990   18.2210   41.5130 N.am   34  GLY34      -0.1942
     10  CA       -10.3250   18.8660   41.2540 C.3    34  GLY34       0.2014
     11  C        -10.1590   19.1930   39.7860 C.2    34  GLY34       0.2638
     12  O        -10.6050   18.4420   38.9240 O.2    34  GLY34      -0.2714
     13  N         -9.5200   20.3250   39.5160 N.am   35  LYS35      -0.1977
     14  CA        -9.2560   20.8250   38.1600 C.3    35  LYS35       0.1596
     15  C         -7.7700   21.1600   38.1460 C.2    35  LYS35       0.2287
     16  O         -7.1880   21.4590   39.1820 O.2    35  LYS35      -0.2864
     17  CB       -10.0460   22.1130   37.9070 C.3    35  LYS35       0.0298
     18  CG       -11.1400   22.0550   36.8460 C.3    35  LYS35       0.0038
     19  CD       -10.5890   22.1890   35.4230 C.3    35  LYS35       0.0206
     20  CE       -11.7270   22.3690   34.4080 C.3    35  LYS35       0.1093
     21  NZ       -12.8110   21.3320   34.5730 N.3    35  LYS35      -0.1314
     22  N         -3.3110   19.5330   34.0970 N.3    38  PHE38      -0.1241
     23  CA        -3.1900   18.1140   33.7600 C.3    38  PHE38       0.1605
     24  C         -4.5560   17.5150   33.3100 C.2    38  PHE38       0.2264
     25  O         -4.6070   16.5670   32.5010 O.2    38  PHE38      -0.2867
     26  CB        -2.7070   17.3560   34.9910 C.3    38  PHE38       0.0534
     27  CG        -3.6710   17.4380   36.1460 C.ar   38  PHE38      -0.0203
     28  CD1       -4.7940   16.6190   36.1920 C.ar   38  PHE38      -0.0042
     29  CD2       -3.4930   18.3840   37.1510 C.ar   38  PHE38      -0.0042
     30  CE1       -5.7200   16.7400   37.2110 C.ar   38  PHE38      -0.0003
     31  CE2       -4.4140   18.5140   38.1790 C.ar   38  PHE38      -0.0003
     32  CZ        -5.5310   17.6930   38.2120 C.ar   38  PHE38      -0.0000
     33  N        -10.0170   15.6730   38.3570 N.3    41  VAL41      -0.1245
     34  CA       -10.1050   14.6240   39.3550 C.3    41  VAL41       0.1561
     35  C        -11.5710   14.5050   39.7320 C.2    41  VAL41       0.2260
     36  O        -12.1930   15.4860   40.1550 O.2    41  VAL41      -0.2867
     37  CB        -9.3010   14.9460   40.6200 C.3    41  VAL41       0.0252
     38  CG1       -9.4160   13.7780   41.6050 C.3    41  VAL41       0.0019
     39  CG2       -7.8460   15.1950   40.2740 C.3    41  VAL41       0.0019
     40  N        -11.0150    8.1550   43.8020 N.3    54  ALA54      -0.1245
     41  CA       -10.8360    9.4360   43.1410 C.3    54  ALA54       0.1562
     42  C        -10.1700    9.0820   41.8200 C.2    54  ALA54       0.2260
     43  O         -9.1850    8.3280   41.7920 O.2    54  ALA54      -0.2867
     44  CB        -9.9520   10.3340   43.9630 C.3    54  ALA54       0.0290
     45  N         -8.2990   10.4800   38.4230 N.3    56  LYS56      -0.1245
     46  CA        -7.6330   11.6090   37.8050 C.3    56  LYS56       0.1561
     47  C         -7.6600   11.3620   36.3120 C.2    56  LYS56       0.2260
     48  O         -6.9890   10.4520   35.8170 O.2    56  LYS56      -0.2867
     49  CB        -6.1820   11.6920   38.2910 C.3    56  LYS56       0.0271
     50  CG        -5.4180   12.9750   37.9520 C.3    56  LYS56       0.0035
     51  CD        -3.9970   12.8170   38.5290 C.3    56  LYS56       0.0206
     52  CE        -3.2360   14.1070   38.6030 C.3    56  LYS56       0.1093
     53  NZ        -1.9750   13.8840   39.3360 N.3    56  LYS56      -0.1314
     54  N          4.3580   10.1910   36.5530 N.3    71  GLU71      -0.1245
     55  CA         3.7840   10.1290   37.8960 C.3    71  GLU71       0.1567
     56  C          3.4050    8.6740   38.2090 C.2    71  GLU71       0.2260
     57  O          3.6680    8.1800   39.3000 O.2    71  GLU71      -0.2867
     58  CB         2.5690   11.0800   38.0190 C.3    71  GLU71       0.0388
     59  CG         1.7370   10.8850   39.2900 C.3    71  GLU71       0.1160
     60  CD         0.6000   11.9150   39.4930 C.2    71  GLU71       0.3649
     61  OE1       -0.0400   12.3200   38.4900 O.co2  71  GLU71      -0.2457
     62  OE2        0.3340   12.2990   40.6700 O.co2  71  GLU71      -0.2457
     63  N         -0.3110    9.4300   48.7680 N.3    90  VAL90      -0.1245
     64  CA        -1.5940    8.9960   48.2370 C.3    90  VAL90       0.1561
     65  C         -1.3800    7.6900   47.4930 C.2    90  VAL90       0.2260
     66  O         -0.3860    7.5310   46.7910 O.2    90  VAL90      -0.2867
     67  CB        -2.1970   10.0360   47.2660 C.3    90  VAL90       0.0252
     68  CG1       -1.3170   10.1710   46.0160 C.3    90  VAL90       0.0019
     69  CG2       -3.6120    9.6270   46.8930 C.3    90  VAL90       0.0019
     70  N         -7.1860    6.7060   42.3840 N.3   106  PHE106     -0.1227
     71  CA        -6.6030    6.8620   43.7060 C.3   106  PHE106      0.1736
     72  C         -7.6300    6.5480   44.7730 C.2   106  PHE106      0.2595
     73  O         -8.8340    6.5510   44.5200 O.2   106  PHE106     -0.2718
     74  CB        -6.1490    8.3070   43.9390 C.3   106  PHE106      0.0547
     75  CG        -5.0240    8.7390   43.0690 C.ar  106  PHE106     -0.0202
     76  CD1       -3.7120    8.3930   43.3800 C.ar  106  PHE106     -0.0042
     77  CD2       -5.2600    9.5410   41.9610 C.ar  106  PHE106     -0.0042
     78  CE1       -2.6510    8.8540   42.5960 C.ar  106  PHE106     -0.0003
     79  CE2       -4.2020   10.0020   41.1750 C.ar  106  PHE106     -0.0003
     80  CZ        -2.9000    9.6590   41.4950 C.ar  106  PHE106     -0.0000
     81  N         -7.1360    6.2820   45.9730 N.am  107  GLU107     -0.1965
     82  CA        -8.0000    6.0450   47.1070 C.3   107  GLU107      0.1733
     83  C         -8.6440    7.4170   47.3180 C.2   107  GLU107      0.2616
     84  O         -8.0110    8.4430   47.0560 O.2   107  GLU107     -0.2715
     85  CB        -7.1580    5.6700   48.3190 C.3   107  GLU107      0.0429
     86  CG        -6.2510    6.7990   48.7890 C.3   107  GLU107      0.1163
     87  CD        -5.2590    6.3620   49.8610 C.2   107  GLU107      0.3649
     88  OE1       -5.6480    5.5930   50.7740 O.co2 107  GLU107     -0.2457
     89  OE2       -4.0920    6.8010   49.7940 O.co2 107  GLU107     -0.2457
     90  N         -9.8960    7.4470   47.7620 N.am  108  MET108     -0.1963
     91  CA       -10.5760    8.7110   47.9840 C.3   108  MET108      0.1736
     92  C        -10.0780    9.3520   49.2870 C.2   108  MET108      0.2616
     93  O         -9.9490    8.6760   50.2970 O.2   108  MET108     -0.2715
     94  CB       -12.0910    8.4820   48.0440 C.3   108  MET108      0.0427
     95  CG       -12.9270    9.7620   48.2330 C.3   108  MET108      0.0599
     96  SD       -12.8270   10.8770   46.8280 S.3   108  MET108     -0.1393
     97  CE       -13.6520   12.3440   47.4540 C.3   108  MET108      0.0692
     98  N         -9.7840   10.6470   49.2550 N.am  109  LEU109     -0.1963
     99  CA        -9.3100   11.3450   50.4400 C.3   109  LEU109      0.1728
    100  C        -10.3000   12.4510   50.8230 C.2   109  LEU109      0.2616
    101  O        -11.3740   12.5760   50.2290 O.2   109  LEU109     -0.2715
    102  CB        -7.9270   11.9450   50.1710 C.3   109  LEU109      0.0311
    103  CG        -6.8190   10.9420   49.8530 C.3   109  LEU109      0.0022
    104  CD1       -5.6080   11.6820   49.3130 C.3   109  LEU109      0.0001
    105  CD2       -6.4610   10.1270   51.1060 C.3   109  LEU109      0.0001
    106  N         -9.9240   13.2740   51.7920 N.am  110  SER110     -0.1950
    107  CA       -10.7940   14.3380   52.2520 C.3   110  SER110      0.1924
    108  C        -10.2970   15.7390   51.8900 C.2   110  SER110      0.2314
    109  O         -9.7580   15.9430   50.8130 O.2   110  SER110     -0.2863
    110  CB       -10.9760   14.2130   53.7600 C.3   110  SER110      0.2116
    111  OG       -11.9840   15.0890   54.2130 O.3   110  SER110     -0.2180
    112  N         -8.1580   19.3270   51.7600 N.3   112  ASN112     -0.1240
    113  CA        -6.7330   19.6210   51.6800 C.3   112  ASN112      0.1653
    114  C         -6.4640   20.7300   52.7270 C.2   112  ASN112      0.2266
    115  O         -7.3820   21.4810   53.0890 O.2   112  ASN112     -0.2867
    116  CB        -6.3330   20.0650   50.2700 C.3   112  ASN112      0.1155
    117  CG        -6.8680   21.4310   49.9010 C.2   112  ASN112      0.2627
    118  OD1       -6.8040   22.3860   50.6860 O.2   112  ASN112     -0.2716
    119  ND2       -7.3770   21.5410   48.6830 N.am  112  ASN112     -0.0877
    120  N         -2.4040   23.0980   49.4930 N.3   159  GLU159     -0.1231
    121  CA        -3.2820   22.4120   48.5390 C.3   159  GLU159      0.1699
    122  C         -2.9320   20.9620   48.1930 C.2   159  GLU159      0.2592
    123  O         -3.8170   20.1950   47.8160 O.2   159  GLU159     -0.2718
    124  CB        -3.3840   23.2000   47.2310 C.3   159  GLU159      0.0402
    125  CG        -4.0200   24.5670   47.3860 C.3   159  GLU159      0.1161
    126  CD        -3.0380   25.6530   47.7950 C.2   159  GLU159      0.3649
    127  OE1       -2.0860   25.3700   48.5690 O.co2 159  GLU159     -0.2457
    128  OE2       -3.2360   26.8040   47.3460 O.co2 159  GLU159     -0.2457
    129  N         -1.6670   20.5740   48.3120 N.am  160  ASN160     -0.1974
    130  CA        -1.3060   19.2090   47.9650 C.3   160  ASN160      0.1688
    131  C         -1.1770   18.2640   49.1340 C.2   160  ASN160      0.2292
    132  O         -0.7070   17.1200   48.9730 O.2   160  ASN160     -0.2864
    133  CB        -0.0260   19.1770   47.1330 C.3   160  ASN160      0.1181
    134  CG        -0.2260   19.7340   45.7310 C.2   160  ASN160      0.2629
    135  OD1       -1.3180   19.6660   45.1650 O.2   160  ASN160     -0.2716
    136  ND2        0.8360   20.2710   45.1570 N.am  160  ASN160     -0.0877
    137  N         -3.5310   16.4810   51.8670 N.3   162  LEU162     -0.1245
    138  CA        -4.9250   16.2090   52.1960 C.3   162  LEU162      0.1561
    139  C         -5.1480   15.3390   53.4160 C.2   162  LEU162      0.2260
    140  O         -4.3510   14.4460   53.7390 O.2   162  LEU162     -0.2867
    141  CB        -5.6430   15.5470   51.0080 C.3   162  LEU162      0.0270
    142  CG        -6.0390   16.4190   49.8050 C.3   162  LEU162      0.0019
    143  CD1       -4.8190   17.0580   49.1720 C.3   162  LEU162      0.0001
    144  CD2       -6.7440   15.5660   48.7930 C.3   162  LEU162      0.0001
    145  N         -0.4170   14.4780   47.8370 N.3   174  VAL174     -0.1231
    146  CA        -0.8820   14.1120   46.5090 C.3   174  VAL174      0.1692
    147  C         -0.1190   14.8970   45.4640 C.2   174  VAL174      0.2592
    148  O          0.6990   15.7560   45.7730 O.2   174  VAL174     -0.2718
    149  CB        -2.3990   14.4070   46.2780 C.3   174  VAL174      0.0266
    150  CG1       -3.2500   13.6300   47.2760 C.3   174  VAL174      0.0020
    151  CG2       -2.6600   15.9250   46.3330 C.3   174  VAL174      0.0020
    152  N         -0.4360   14.5940   44.2180 N.am  175  ASP175     -0.1974
    153  CA         0.1410   15.2330   43.0610 C.3   175  ASP175      0.1709
    154  C          1.6290   15.1020   42.8910 C.2   175  ASP175      0.2293
    155  O          2.3970   15.9480   43.3300 O.2   175  ASP175     -0.2864
    156  CB        -0.2310   16.7120   43.0080 C.3   175  ASP175      0.1436
    157  CG         0.2640   17.3790   41.7290 C.2   175  ASP175      0.3671
    158  OD1        0.3710   16.6710   40.6950 O.co2 175  ASP175     -0.2456
    159  OD2        0.5370   18.6000   41.7460 O.co2 175  ASP175     -0.2456
@<TRIPOS>BOND
     1    25    24    2
     2    24    23    1
     3    23    22    1
     4    23    26    1
     5    20    21    1
     6    20    19    1
     7    26    27    1
     8    19    18    1
     9    48    47    2
    10    27    28   ar
    11    27    29   ar
    12    28    30   ar
    13    47    46    1
    14    54    55    1
    15    18    17    1
    16    29    31   ar
    17    30    32   ar
    18    46    49    1
    19    46    45    1
    20    55    58    1
    21    55    56    1
    22    17    14    1
    23    50    49    1
    24    50    51    1
    25    58    59    1
    26    15    14    1
    27    15    16    2
    28    14    13    1
    29    31    32   ar
    30    56    57    2
    31    33    34    1
    32    61    60   ar
    33    51    52    1
    34    52    53    1
    35    12    11    2
    36    59    60    1
    37    34    35    1
    38    34    37    1
    39    60    62   ar
    40    13    11   am
    41    35    36    2
    42    11    10    1
    43    39    37    1
    44    37    38    1
    45   158   157   ar
    46    79    80   ar
    47    79    77   ar
    48    10     9    1
    49    80    78   ar
    50     9     3   am
    51     1     2    1
    52   157   159   ar
    53   157   156    1
    54    43    42    2
    55    42    41    1
    56    77    75   ar
    57    70    71    1
    58    78    76   ar
    59     3     2    1
    60     3     4    2
    61   154   153    1
    62   154   155    2
    63     2     5    1
    64   156   153    1
    65   153   152    1
    66    75    76   ar
    67    75    74    1
    68    41    40    1
    69    41    44    1
    70     6     5    1
    71     6     8    1
    72    71    74    1
    73    71    72    1
    74     5     7    1
    75   152   147   am
    76    73    72    2
    77    72    81   am
    78   136   134   am
    79   135   134    2
    80   147   148    2
    81   147   146    1
    82   134   133    1
    83    81    82    1
    84    68    67    1
    85   149   151    1
    86   149   146    1
    87   149   150    1
    88   146   145    1
    89    66    65    2
    90    96    97    1
    91    96    95    1
    92    69    67    1
    93    84    83    2
    94    82    83    1
    95    82    85    1
    96   133   130    1
    97   124   125    1
    98   124   121    1
    99    67    64    1
   100    83    90   am
   101   128   126   ar
   102   125   126    1
   103    65    64    1
   104    90    91    1
   105   126   127   ar
   106   123   122    2
   107   130   129    1
   108   130   131    1
   109    91    94    1
   110    91    92    1
   111    94    95    1
   112   122   129   am
   113   122   121    1
   114    64    63    1
   115    85    86    1
   116   121   120    1
   117   119   117   am
   118    86    87    1
   119   144   142    1
   120   132   131    2
   121   143   142    1
   122    98    92   am
   123    98    99    1
   124    92    93    2
   125   104   103    1
   126    89    87   ar
   127   142   141    1
   128   103   102    1
   129   103   105    1
   130    87    88   ar
   131   117   116    1
   132   117   118    2
   133   102    99    1
   134   101   100    2
   135   116   113    1
   136    99   100    1
   137   109   108    2
   138   100   106   am
   139   141   138    1
   140   113   112    1
   141   113   114    1
   142   106   107    1
   143   137   138    1
   144   108   107    1
   145   138   139    1
   146   107   110    1
   147   114   115    2
   148   139   140    2
   149   110   111    1
