@<TRIPOS>MOLECULE
tmp/3anrC00.pdb
 129 120 0 0 0
SMALL
GASTEIGER

@<TRIPOS>ATOM
      1  N         48.5080    0.9450   22.4730 N.3    32  ILE32      -0.1245
      2  CA        49.0220    1.7550   23.5830 C.3    32  ILE32       0.1561
      3  C         48.1670    1.6400   24.8330 C.2    32  ILE32       0.2260
      4  O         48.3700    2.3880   25.8030 O.2    32  ILE32      -0.2867
      5  CB        49.1150    3.2570   23.2210 C.3    32  ILE32       0.0252
      6  CG1       47.7340    3.7950   22.8500 C.3    32  ILE32       0.0019
      7  CG2       50.1270    3.4530   22.1070 C.3    32  ILE32       0.0019
      8  CD1       47.7150    5.2760   22.5320 C.3    32  ILE32       0.0001
      9  N         36.9740   -2.5980   28.2440 N.3    37  PHE37      -0.1241
     10  CA        36.1980   -2.0340   27.1330 C.3    37  PHE37       0.1605
     11  C         36.7510   -2.4340   25.7480 C.2    37  PHE37       0.2264
     12  O         36.0130   -2.4820   24.7670 O.2    37  PHE37      -0.2867
     13  CB        36.2030   -0.5110   27.2300 C.3    37  PHE37       0.0534
     14  CG        37.5780    0.0870   27.1960 C.ar   37  PHE37      -0.0203
     15  CD1       38.2930    0.1630   26.0020 C.ar   37  PHE37      -0.0042
     16  CD2       38.1900    0.5060   28.3690 C.ar   37  PHE37      -0.0042
     17  CE1       39.6080    0.6450   25.9750 C.ar   37  PHE37      -0.0003
     18  CE2       39.5050    0.9900   28.3630 C.ar   37  PHE37      -0.0003
     19  CZ        40.2160    1.0570   27.1580 C.ar   37  PHE37      -0.0000
     20  N         43.1930    0.6090   22.9590 N.3    40  VAL40      -0.1245
     21  CA        43.4980    1.9700   22.5580 C.3    40  VAL40       0.1561
     22  C         44.7470    1.9020   21.6820 C.2    40  VAL40       0.2260
     23  O         45.7770    1.3930   22.1020 O.2    40  VAL40      -0.2867
     24  CB        43.7650    2.8690   23.7770 C.3    40  VAL40       0.0252
     25  CG1       44.1440    4.2570   23.3330 C.3    40  VAL40       0.0019
     26  CG2       42.5540    2.9510   24.6120 C.3    40  VAL40       0.0019
     27  N         44.4840    9.1170   19.0670 N.3    53  ALA53      -0.1245
     28  CA        44.3980    7.8700   19.8230 C.3    53  ALA53       0.1562
     29  C         42.9980    7.3360   19.4990 C.2    53  ALA53       0.2260
     30  O         42.0110    8.0610   19.6120 O.2    53  ALA53      -0.2867
     31  CB        44.5400    8.1400   21.3000 C.3    53  ALA53       0.0290
     32  N         40.1080    4.5360   20.3830 N.3    55  LYS55      -0.1245
     33  CA        39.6330    3.5540   21.3490 C.3    55  LYS55       0.1561
     34  C         38.6850    2.6220   20.5950 C.2    55  LYS55       0.2260
     35  O         37.6150    3.0280   20.1790 O.2    55  LYS55      -0.2867
     36  CB        38.8960    4.2710   22.4740 C.3    55  LYS55       0.0271
     37  CG        38.4840    3.4300   23.6730 C.3    55  LYS55       0.0035
     38  CD        37.8220    4.3340   24.7290 C.3    55  LYS55       0.0206
     39  CE        37.5440    3.6150   26.0500 C.3    55  LYS55       0.1093
     40  NZ        37.1310    4.5720   27.1340 N.3    55  LYS55      -0.1314
     41  N         29.3950    6.8080   27.0460 N.3    70  GLU70      -0.1245
     42  CA        30.5800    7.6470   27.0770 C.3    70  GLU70       0.1567
     43  C         30.5080    8.6900   25.9500 C.2    70  GLU70       0.2260
     44  O         30.8160    9.8630   26.1540 O.2    70  GLU70      -0.2867
     45  CB        31.8490    6.7610   26.9670 C.3    70  GLU70       0.0388
     46  CG        33.1980    7.5180   26.8720 C.3    70  GLU70       0.1160
     47  CD        34.4430    6.6000   26.9440 C.2    70  GLU70       0.3649
     48  OE1       34.3730    5.4390   26.4820 O.co2  70  GLU70      -0.2457
     49  OE2       35.5040    7.0490   27.4510 O.co2  70  GLU70      -0.2457
     50  N         39.3810   15.1160   28.1080 N.3    89  VAL89      -0.1245
     51  CA        39.8590   14.6940   26.7960 C.3    89  VAL89       0.1561
     52  C         38.7630   14.9620   25.7590 C.2    89  VAL89       0.2260
     53  O         37.5760   14.7890   26.0320 O.2    89  VAL89      -0.2867
     54  CB        40.2830   13.2140   26.7880 C.3    89  VAL89       0.0252
     55  CG1       39.0770   12.3080   26.9160 C.3    89  VAL89       0.0019
     56  CG2       41.0970   12.9320   25.5230 C.3    89  VAL89       0.0019
     57  N         40.0620   10.2240   19.6200 N.3   105  PHE105     -0.1227
     58  CA        40.4070   11.2810   20.5530 C.3   105  PHE105      0.1736
     59  C         41.7110   11.9690   20.1140 C.2   105  PHE105      0.2595
     60  O         42.4800   11.4380   19.2960 O.2   105  PHE105     -0.2718
     61  CB        40.6260   10.6860   21.9380 C.3   105  PHE105      0.0547
     62  CG        39.4080   10.0650   22.5420 C.ar  105  PHE105     -0.0202
     63  CD1       38.5070   10.8270   23.2870 C.ar  105  PHE105     -0.0042
     64  CD2       39.1700    8.7170   22.3990 C.ar  105  PHE105     -0.0042
     65  CE1       37.3860   10.2460   23.8810 C.ar  105  PHE105     -0.0003
     66  CE2       38.0590    8.1210   22.9830 C.ar  105  PHE105     -0.0003
     67  CZ        37.1590    8.8890   23.7310 C.ar  105  PHE105     -0.0000
     68  N         41.9580   13.1490   20.6640 N.am  106  GLU106     -0.1965
     69  CA        43.1870   13.8610   20.3860 C.3   106  GLU106      0.1733
     70  C         44.2290   12.9480   21.0270 C.2   106  GLU106      0.2616
     71  O         43.9260   12.2710   22.0060 O.2   106  GLU106     -0.2715
     72  CB        43.1580   15.2150   21.0930 C.3   106  GLU106      0.0429
     73  CG        42.9990   15.1020   22.6180 C.3   106  GLU106      0.1163
     74  CD        42.6800   16.4380   23.2950 C.2   106  GLU106      0.3649
     75  OE1       43.4340   17.4100   23.0870 O.co2 106  GLU106     -0.2457
     76  OE2       41.6790   16.5190   24.0460 O.co2 106  GLU106     -0.2457
     77  N         45.4420   12.9110   20.4890 N.am  107  MET107     -0.1963
     78  CA        46.4890   12.0440   21.0420 C.3   107  MET107      0.1736
     79  C         47.0970   12.6890   22.2790 C.2   107  MET107      0.2616
     80  O         47.3380   13.8840   22.3000 O.2   107  MET107     -0.2715
     81  CB        47.5720   11.8020   19.9860 C.3   107  MET107      0.0427
     82  CG        48.7680   11.0140   20.4780 C.3   107  MET107      0.0599
     83  SD        48.4190    9.2630   20.6760 S.3   107  MET107     -0.1393
     84  CE        50.0000    8.6250   21.2620 C.3   107  MET107      0.0692
     85  N         47.3440   11.9120   23.3170 N.am  108  LEU108     -0.1963
     86  CA        47.9370   12.4760   24.5260 C.3   108  LEU108      0.1728
     87  C         49.2350   11.7600   24.8680 C.2   108  LEU108      0.2616
     88  O         49.7240   10.9580   24.0810 O.2   108  LEU108     -0.2715
     89  CB        46.9560   12.3640   25.6840 C.3   108  LEU108      0.0311
     90  CG        45.6400   13.0860   25.4270 C.3   108  LEU108      0.0022
     91  CD1       44.6380   12.7090   26.4890 C.3   108  LEU108      0.0001
     92  CD2       45.8760   14.5760   25.4160 C.3   108  LEU108      0.0001
     93  N         49.7800   12.0290   26.0490 N.am  109  SER109     -0.1950
     94  CA        51.0390   11.4100   26.4590 C.3   109  SER109      0.1924
     95  C         50.9150   10.3530   27.5770 C.2   109  SER109      0.2314
     96  O         49.9860    9.5420   27.5730 O.2   109  SER109     -0.2863
     97  CB        52.0130   12.5230   26.8710 C.3   109  SER109      0.2116
     98  OG        53.3580   12.0880   26.8010 O.3   109  SER109     -0.2180
     99  N         43.9730    7.3270   34.8200 N.3   159  ASN159     -0.1240
    100  CA        43.0260    8.0580   33.9890 C.3   159  ASN159      0.1653
    101  C         43.2680    9.5570   33.8550 C.2   159  ASN159      0.2266
    102  O         42.4000   10.3030   33.3960 O.2   159  ASN159     -0.2867
    103  CB        41.5980    7.8060   34.4540 C.3   159  ASN159      0.1155
    104  CG        41.1380    6.3970   34.1610 C.2   159  ASN159      0.2627
    105  OD1       41.5640    5.7750   33.1830 O.2   159  ASN159     -0.2716
    106  ND2       40.2480    5.8870   34.9950 N.am  159  ASN159     -0.0877
    107  N         46.0500   11.9610   32.1170 N.3   161  LEU161     -0.1245
    108  CA        47.1700   11.9500   31.1920 C.3   161  LEU161      0.1561
    109  C         47.7280   13.3230   30.9410 C.2   161  LEU161      0.2260
    110  O         47.0170   14.3110   31.0760 O.2   161  LEU161     -0.2867
    111  CB        46.7420   11.3510   29.8550 C.3   161  LEU161      0.0270
    112  CG        46.6460    9.8280   29.7430 C.3   161  LEU161      0.0019
    113  CD1       45.7170    9.2700   30.8170 C.3   161  LEU161      0.0001
    114  CD2       46.1440    9.4740   28.3530 C.3   161  LEU161      0.0001
    115  N         40.5230   11.1840   31.2450 N.3   173  VAL173     -0.1231
    116  CA        40.0000   10.3450   30.1830 C.3   173  VAL173      0.1692
    117  C         39.1530    9.2360   30.7770 C.2   173  VAL173      0.2592
    118  O         39.0750    9.0770   32.0060 O.2   173  VAL173     -0.2718
    119  CB        41.1530    9.6720   29.3690 C.3   173  VAL173      0.0266
    120  CG1       42.1510   10.7140   28.9180 C.3   173  VAL173      0.0020
    121  CG2       41.8530    8.6300   30.2170 C.3   173  VAL173      0.0020
    122  N         38.5490    8.4570   29.8810 N.am  174  ASP174     -0.1974
    123  CA        37.7270    7.2940   30.2220 C.3   174  ASP174      0.1709
    124  C         36.4480    7.5620   31.0120 C.2   174  ASP174      0.2293
    125  O         36.4310    7.4980   32.2320 O.2   174  ASP174     -0.2864
    126  CB        38.5510    6.2580   30.9900 C.3   174  ASP174      0.1436
    127  CG        38.0280    4.8530   30.7890 C.2   174  ASP174      0.3671
    128  OD1       36.8460    4.7150   30.3760 O.co2 174  ASP174     -0.2456
    129  OD2       38.7970    3.8900   31.0380 O.co2 174  ASP174     -0.2456
@<TRIPOS>BOND
     1    27    28    1
     2    60    59    2
     3    29    30    2
     4    29    28    1
     5    57    58    1
     6    28    31    1
     7    81    82    1
     8    81    78    1
     9    59    58    1
    10    59    68   am
    11    35    34    2
    12    32    33    1
    13    69    68    1
    14    69    70    1
    15    69    72    1
    16    82    83    1
    17    77    70   am
    18    77    78    1
    19    58    61    1
    20    34    33    1
    21    83    84    1
    22    70    71    2
    23    78    79    1
    24    72    73    1
    25    33    36    1
    26    22    23    2
    27    22    21    1
    28    61    62    1
    29     7     5    1
    30    79    80    2
    31    79    85   am
    32    64    62   ar
    33    64    66   ar
    34     1     2    1
    35    36    37    1
    36     8     6    1
    37    62    63   ar
    38    21    20    1
    39    21    24    1
    40    73    74    1
    41     6     5    1
    42    66    67   ar
    43    75    74   ar
    44     5     2    1
    45    63    65   ar
    46    74    76   ar
    47    85    86    1
    48    25    24    1
    49     2     3    1
    50    37    38    1
    51    67    65   ar
    52    24    26    1
    53    88    87    2
    54    86    87    1
    55    86    89    1
    56    38    39    1
    57    12    11    2
    58     3     4    2
    59    87    93   am
    60    92    90    1
    61    90    89    1
    62    90    91    1
    63    56    54    1
    64    11    10    1
    65    52    53    2
    66    52    51    1
    67    43    44    2
    68    43    42    1
    69    17    15   ar
    70    17    19   ar
    71    15    14   ar
    72    93    94    1
    73    39    40    1
    74    94    97    1
    75    94    95    1
    76    48    47   ar
    77    54    51    1
    78    54    55    1
    79    51    50    1
    80    98    97    1
    81    46    47    1
    82    46    45    1
    83    47    49   ar
    84    45    42    1
    85    41    42    1
    86    10    13    1
    87    10     9    1
    88    19    18   ar
    89    14    13    1
    90    14    16   ar
    91    96    95    2
    92   114   112    1
    93    18    16   ar
    94   120   119    1
    95   119   116    1
    96   119   121    1
    97   112   111    1
    98   112   113    1
    99   111   108    1
   100   122   123    1
   101   122   117   am
   102   116   117    1
   103   116   115    1
   104   123   126    1
   105   123   124    1
   106   128   127   ar
   107   117   118    2
   108   127   126    1
   109   127   129   ar
   110   109   110    2
   111   109   108    1
   112   124   125    2
   113   108   107    1
   114   105   104    2
   115   102   101    2
   116   101   100    1
   117   100   103    1
   118   100    99    1
   119   104   103    1
   120   104   106   am
