@<TRIPOS>MOLECULE
tmp/3ansA00.pdb
 196 193 0 0 0
SMALL
GASTEIGER

@<TRIPOS>ATOM
      1  N         29.6720   27.0860  111.5530 N.3    36  PHE36      -0.1228
      2  CA        30.6750   26.8250  112.5780 C.3    36  PHE36       0.1721
      3  C         31.0980   25.3480  112.5930 C.2    36  PHE36       0.2437
      4  O         30.2360   24.4680  112.4970 O.2    36  PHE36      -0.2733
      5  CB        30.1270   27.2280  113.9570 C.3    36  PHE36       0.0547
      6  CG        31.0590   26.9110  115.0990 C.ar   36  PHE36      -0.0202
      7  CD1       31.0540   25.6540  115.6900 C.ar   36  PHE36      -0.0042
      8  CD2       31.9480   27.8740  115.5780 C.ar   36  PHE36      -0.0042
      9  CE1       31.9300   25.3510  116.7320 C.ar   36  PHE36      -0.0003
     10  CE2       32.8170   27.5820  116.6330 C.ar   36  PHE36      -0.0003
     11  CZ        32.8030   26.3160  117.2070 C.ar   36  PHE36      -0.0000
     12  N         32.4210   25.0710  112.7120 N.am   37  PRO37      -0.2729
     13  CA        33.5230   26.0200  112.6410 C.3    37  PRO37       0.1401
     14  C         34.2210   25.8580  111.2970 C.2    37  PRO37       0.2269
     15  O         35.1180   25.0260  111.1550 O.2    37  PRO37      -0.2865
     16  CB        34.4330   25.5780  113.7970 C.3    37  PRO37       0.0296
     17  CG        34.1630   24.1090  113.9730 C.3    37  PRO37       0.0237
     18  CD        32.8980   23.7610  113.1900 C.3    37  PRO37       0.0939
     19  N         24.2510   26.4260  108.4350 N.3   104  ASP104     -0.1225
     20  CA        24.4830   26.4680  109.8670 C.3   104  ASP104      0.1805
     21  C         24.3600   27.9350  110.3680 C.2   104  ASP104      0.2597
     22  O         23.3840   28.6060  110.0220 O.2   104  ASP104     -0.2718
     23  CB        25.8430   25.7990  110.1720 C.3   104  ASP104      0.1424
     24  CG        26.1060   25.6470  111.6410 C.2   104  ASP104      0.3668
     25  OD1       26.9120   26.4420  112.1670 O.co2 104  ASP104     -0.2456
     26  OD2       25.5070   24.7430  112.2690 O.co2 104  ASP104     -0.2456
     27  N         25.3380   28.4500  111.1200 N.am  105  TRP105     -0.1976
     28  CA        25.3200   29.8770  111.5470 C.3   105  TRP105      0.1640
     29  C         25.2090   30.8640  110.3990 C.2   105  TRP105      0.2290
     30  O         24.6530   31.9470  110.5680 O.2   105  TRP105     -0.2864
     31  CB        26.5340   30.2510  112.4060 C.3   105  TRP105      0.0576
     32  CG        26.3400   29.9840  113.8740 C.ar  105  TRP105      0.0006
     33  CD1       26.9870   29.0410  114.6310 C.ar  105  TRP105      0.0946
     34  CD2       25.4380   30.6590  114.7580 C.ar  105  TRP105      0.0152
     35  NE1       26.5410   29.0950  115.9300 N.ar  105  TRP105     -0.2442
     36  CE2       25.5920   30.0790  116.0370 C.ar  105  TRP105      0.0810
     37  CE3       24.5160   31.7100  114.5980 C.ar  105  TRP105      0.0012
     38  CZ2       24.8480   30.5080  117.1550 C.ar  105  TRP105      0.0191
     39  CZ3       23.7850   32.1370  115.7140 C.ar  105  TRP105      0.0001
     40  CH2       23.9610   31.5370  116.9700 C.ar  105  TRP105      0.0015
     41  N         21.5070   31.0990  109.5350 N.3   108  MET108     -0.1245
     42  CA        20.8340   32.0300  110.4420 C.3   108  MET108      0.1570
     43  C         21.0780   33.4670  109.9790 C.2   108  MET108      0.2261
     44  O         20.1500   34.2750  109.9100 O.2   108  MET108     -0.2867
     45  CB        21.3100   31.8360  111.8810 C.3   108  MET108      0.0387
     46  CG        20.4760   32.5740  112.9410 C.3   108  MET108      0.0595
     47  SD        18.6950   32.1720  112.9440 S.3   108  MET108     -0.1393
     48  CE        18.6540   30.3980  113.0340 C.3   108  MET108      0.0692
     49  N         19.5880   25.1600  108.4880 N.3   129  THR129     -0.1204
     50  CA        19.0860   26.1440  109.4450 C.3   129  THR129      0.1979
     51  C         17.7020   26.6930  109.1110 C.2   129  THR129      0.2459
     52  O         17.5190   27.3710  108.0940 O.2   129  THR129     -0.2732
     53  CB        20.0570   27.3270  109.6190 C.3   129  THR129      0.1783
     54  OG1       21.4050   26.8350  109.6990 O.3   129  THR129     -0.2211
     55  CG2       19.7140   28.0770  110.8870 C.3   129  THR129      0.0376
     56  N         16.7220   26.4210  109.9870 N.am  130  PRO130     -0.2728
     57  CA        15.3660   26.9180  109.7650 C.3   130  PRO130      0.1401
     58  C         15.2230   28.3880  110.1630 C.2   130  PRO130      0.2269
     59  O         16.0960   28.9430  110.8520 O.2   130  PRO130     -0.2865
     60  CB        14.5310   26.0360  110.6940 C.3   130  PRO130      0.0296
     61  CG        15.4430   25.7800  111.8500 C.3   130  PRO130      0.0237
     62  CD        16.8330   25.6760  111.2570 C.3   130  PRO130      0.0939
     63  N         20.7260   21.0190  122.4720 N.3   150  PHE150     -0.1241
     64  CA        21.5860   22.2090  122.4110 C.3   150  PHE150      0.1605
     65  C         22.3310   22.4700  123.7340 C.2   150  PHE150      0.2264
     66  O         22.4770   23.6220  124.1560 O.2   150  PHE150     -0.2867
     67  CB        20.7660   23.4540  122.0270 C.3   150  PHE150      0.0534
     68  CG        19.8600   23.2590  120.8380 C.ar  150  PHE150     -0.0203
     69  CD1       20.3760   23.2150  119.5430 C.ar  150  PHE150     -0.0042
     70  CD2       18.4830   23.1450  121.0150 C.ar  150  PHE150     -0.0042
     71  CE1       19.5360   23.0460  118.4410 C.ar  150  PHE150     -0.0003
     72  CE2       17.6340   22.9750  119.9210 C.ar  150  PHE150     -0.0003
     73  CZ        18.1620   22.9260  118.6310 C.ar  150  PHE150     -0.0000
     74  N         25.5780   21.4800  124.4110 N.3   152  TYR152     -0.1227
     75  CA        26.9290   21.8990  124.0270 C.3   152  TYR152      0.1736
     76  C         27.0210   23.4320  123.8980 C.2   152  TYR152      0.2595
     77  O         28.0850   24.0190  124.0950 O.2   152  TYR152     -0.2718
     78  CB        27.3320   21.2330  122.7010 C.3   152  TYR152      0.0548
     79  CG        26.5040   21.7100  121.5330 C.ar  152  TYR152     -0.0200
     80  CD1       26.9220   22.7900  120.7570 C.ar  152  TYR152     -0.0009
     81  CD2       25.2860   21.1060  121.2260 C.ar  152  TYR152     -0.0009
     82  CE1       26.1570   23.2500  119.7040 C.ar  152  TYR152      0.0417
     83  CE2       24.5090   21.5550  120.1670 C.ar  152  TYR152      0.0417
     84  CZ        24.9520   22.6270  119.4090 C.ar  152  TYR152      0.1957
     85  OH        24.1880   23.0810  118.3620 O.3   152  TYR152     -0.2866
     86  N         25.8980   24.0630  123.5580 N.am  153  GLN153     -0.1979
     87  CA        25.8230   25.5180  123.4430 C.3   153  GLN153      0.1601
     88  C         26.0850   26.2190  124.7710 C.2   153  GLN153      0.2287
     89  O         26.6900   27.2880  124.7970 O.2   153  GLN153     -0.2864
     90  CB        24.4830   25.9450  122.8460 C.3   153  GLN153      0.0394
     91  CG        24.4810   25.8890  121.3290 C.3   153  GLN153      0.0908
     92  CD        23.1270   26.1590  120.7030 C.2   153  GLN153      0.2608
     93  OE1       22.6000   25.3220  119.9760 O.2   153  GLN153     -0.2717
     94  NE2       22.5650   27.3340  120.9710 N.am  153  GLN153     -0.0878
     95  N         29.6880   26.2310  125.3050 N.3   156  PHE156     -0.1241
     96  CA        30.3150   27.2510  124.4570 C.3   156  PHE156      0.1605
     97  C         30.2570   28.6740  125.0340 C.2   156  PHE156      0.2264
     98  O         30.9300   29.5700  124.5310 O.2   156  PHE156     -0.2867
     99  CB        29.7200   27.2310  123.0390 C.3   156  PHE156      0.0534
    100  CG        30.1630   26.0540  122.1910 C.ar  156  PHE156     -0.0203
    101  CD1       31.1820   25.1990  122.6090 C.ar  156  PHE156     -0.0042
    102  CD2       29.5870   25.8320  120.9490 C.ar  156  PHE156     -0.0042
    103  CE1       31.5910   24.1290  121.8200 C.ar  156  PHE156     -0.0003
    104  CE2       29.9890   24.7660  120.1570 C.ar  156  PHE156     -0.0003
    105  CZ        30.9960   23.9120  120.5960 C.ar  156  PHE156     -0.0000
    106  N         39.2810   23.0880  121.7890 N.3   166  LEU166     -0.1245
    107  CA        39.2480   22.9890  120.3300 C.3   166  LEU166      0.1561
    108  C         40.5960   23.3470  119.6850 C.2   166  LEU166      0.2260
    109  O         40.9290   22.8480  118.6090 O.2   166  LEU166     -0.2867
    110  CB        38.1020   23.8410  119.7570 C.3   166  LEU166      0.0270
    111  CG        36.6710   23.3450  120.0310 C.3   166  LEU166      0.0019
    112  CD1       35.6400   24.4710  119.9150 C.3   166  LEU166      0.0001
    113  CD2       36.2930   22.1920  119.1280 C.3   166  LEU166      0.0001
    114  N         35.0520   16.3750  114.1760 N.3   177  LEU177     -0.1245
    115  CA        33.8510   17.0850  113.7590 C.3   177  LEU177      0.1561
    116  C         33.3560   16.6830  112.3780 C.2   177  LEU177      0.2260
    117  O         32.1960   16.3030  112.2220 O.2   177  LEU177     -0.2867
    118  CB        34.0910   18.5960  113.8060 C.3   177  LEU177      0.0270
    119  CG        34.3190   19.2030  115.1890 C.3   177  LEU177      0.0019
    120  CD1       34.6040   20.6840  115.0650 C.3   177  LEU177      0.0001
    121  CD2       33.1060   18.9830  116.0560 C.3   177  LEU177      0.0001
    122  N         25.5120   14.6830  121.7460 N.3   188  MET188     -0.1245
    123  CA        24.9600   15.9510  122.2310 C.3   188  MET188      0.1570
    124  C         23.7880   15.7460  123.2030 C.2   188  MET188      0.2261
    125  O         22.6300   16.0440  122.8810 O.2   188  MET188     -0.2867
    126  CB        24.5570   16.8560  121.0550 C.3   188  MET188      0.0387
    127  CG        25.7040   17.6740  120.4620 C.3   188  MET188      0.0595
    128  SD        26.9330   16.6980  119.5690 S.3   188  MET188     -0.1393
    129  CE        28.2910   17.8590  119.4740 C.3   188  MET188      0.0692
    130  N         33.9390   18.4190  125.0660 N.3   197  LEU197     -0.1245
    131  CA        33.3520   17.9090  123.8320 C.3   197  LEU197      0.1561
    132  C         34.0330   16.6350  123.3190 C.2   197  LEU197      0.2260
    133  O         33.3780   15.7920  122.7040 O.2   197  LEU197     -0.2867
    134  CB        33.3830   19.0050  122.7590 C.3   197  LEU197      0.0270
    135  CG        32.5200   18.9130  121.5000 C.3   197  LEU197      0.0019
    136  CD1       31.0360   19.0180  121.8310 C.3   197  LEU197      0.0001
    137  CD2       32.9250   20.0220  120.5440 C.3   197  LEU197      0.0001
    138  N         28.0260   32.1060  119.0680 N.3   235  TYR235     -0.1241
    139  CA        27.0890   31.4930  120.0220 C.3   235  TYR235      0.1605
    140  C         26.8160   32.3180  121.2770 C.2   235  TYR235      0.2264
    141  O         25.9790   31.9260  122.0900 O.2   235  TYR235     -0.2867
    142  CB        27.6350   30.1700  120.5250 C.3   235  TYR235      0.0534
    143  CG        27.7200   29.0280  119.5560 C.ar  235  TYR235     -0.0201
    144  CD1       26.6590   28.1250  119.4170 C.ar  235  TYR235     -0.0009
    145  CD2       28.8980   28.7860  118.8510 C.ar  235  TYR235     -0.0009
    146  CE1       26.7550   27.0420  118.5570 C.ar  235  TYR235      0.0417
    147  CE2       29.0080   27.7060  117.9970 C.ar  235  TYR235      0.0417
    148  CZ        27.9370   26.8360  117.8580 C.ar  235  TYR235      0.1957
    149  OH        28.0530   25.7670  117.0120 O.3   235  TYR235     -0.2866
    150  N         23.0960   35.2380  122.3780 N.3   238  MET238     -0.1245
    151  CA        21.7140   34.7490  122.2800 C.3   238  MET238      0.1570
    152  C         20.6760   35.8070  122.6700 C.2   238  MET238      0.2261
    153  O         19.7000   36.0030  121.9550 O.2   238  MET238     -0.2867
    154  CB        21.5050   33.4560  123.0830 C.3   238  MET238      0.0387
    155  CG        22.3480   32.2750  122.6160 C.3   238  MET238      0.0595
    156  SD        22.0940   31.9040  120.8660 S.3   238  MET238     -0.1393
    157  CE        23.2740   30.5770  120.6250 C.3   238  MET238      0.0692
    158  N         21.5850   17.8110  114.9420 N.3   267  VAL267     -0.1231
    159  CA        21.5240   19.0660  115.6960 C.3   267  VAL267      0.1692
    160  C         20.5060   20.0440  115.0920 C.2   267  VAL267      0.2591
    161  O         19.6600   20.5810  115.8050 O.2   267  VAL267     -0.2718
    162  CB        22.9300   19.7090  115.9270 C.3   267  VAL267      0.0266
    163  CG1       23.6330   20.0240  114.6280 C.3   267  VAL267      0.0020
    164  CG2       22.8150   20.9640  116.7800 C.3   267  VAL267      0.0020
    165  N         20.5920   20.2590  113.7820 N.am  268  LEU268     -0.1980
    166  CA        19.6070   21.0490  113.0610 C.3   268  LEU268      0.1596
    167  C         18.7240   20.0660  112.3120 C.2   268  LEU268      0.2287
    168  O         18.9390   19.7830  111.1310 O.2   268  LEU268     -0.2864
    169  CB        20.2780   22.0670  112.1130 C.3   268  LEU268      0.0297
    170  CG        21.1980   23.1250  112.7400 C.3   268  LEU268      0.0022
    171  CD1       22.0250   23.8790  111.6710 C.3   268  LEU268      0.0001
    172  CD2       20.4220   24.1120  113.6220 C.3   268  LEU268      0.0001
    173  N         25.2230   16.7410  109.2050 N.3   293  HIS293     -0.1226
    174  CA        25.3070   18.1920  109.3940 C.3   293  HIS293      0.1752
    175  C         26.1220   18.9340  108.3160 C.2   293  HIS293      0.2596
    176  O         25.7570   20.0480  107.9240 O.2   293  HIS293     -0.2718
    177  CB        25.8830   18.5290  110.7690 C.3   293  HIS293      0.0759
    178  CG        26.0610   19.9960  110.9790 C.ar  293  HIS293      0.0818
    179  ND1       24.9960   20.8530  111.1300 N.ar  293  HIS293     -0.2268
    180  CD2       27.1710   20.7690  110.9780 C.ar  293  HIS293      0.1154
    181  CE1       25.4430   22.0900  111.2480 C.ar  293  HIS293      0.1986
    182  NE2       26.7600   22.0650  111.1630 N.ar  293  HIS293     -0.2212
    183  N         27.2080   18.3080  107.8590 N.am  294  TRP294     -0.1976
    184  CA        28.2130   18.9300  106.9820 C.3   294  TRP294      0.1640
    185  C         27.7780   18.7720  105.5230 C.2   294  TRP294      0.2290
    186  O         28.4550   18.1670  104.6970 O.2   294  TRP294     -0.2864
    187  CB        29.6030   18.3230  107.2710 C.3   294  TRP294      0.0576
    188  CG        29.8360   18.2250  108.7560 C.ar  294  TRP294      0.0006
    189  CD1       29.7200   17.0940  109.5450 C.ar  294  TRP294      0.0946
    190  CD2       30.1480   19.3020  109.6490 C.ar  294  TRP294      0.0152
    191  NE1       29.9560   17.4140  110.8640 N.ar  294  TRP294     -0.2442
    192  CE2       30.2280   18.7560  110.9550 C.ar  294  TRP294      0.0810
    193  CE3       30.3920   20.6780  109.4720 C.ar  294  TRP294      0.0012
    194  CZ2       30.5430   19.5330  112.0700 C.ar  294  TRP294      0.0191
    195  CZ3       30.6970   21.4440  110.5740 C.ar  294  TRP294      0.0001
    196  CH2       30.7680   20.8710  111.8650 C.ar  294  TRP294      0.0015
@<TRIPOS>BOND
     1   186   185    2
     2   185   184    1
     3   184   187    1
     4   184   183    1
     5   187   188    1
     6   183   175   am
     7   176   175    2
     8    52    51    2
     9   175   174    1
    10    19    20    1
    11    49    50    1
    12   188   189   ar
    13   188   190   ar
    14    51    50    1
    15    51    56   am
    16   173   174    1
    17   174   177    1
    18    50    53    1
    19   193   190   ar
    20   193   195   ar
    21    41    42    1
    22   189   191   ar
    23    53    54    1
    24    53    55    1
    25   190   192   ar
    26    57    56    1
    27    57    58    1
    28    57    60    1
    29    20    23    1
    30    20    21    1
    31    44    43    2
    32    43    42    1
    33    56    62    1
    34    22    21    2
    35    58    59    2
    36    23    24    1
    37    21    27   am
    38    29    30    2
    39    29    28    1
    40    42    45    1
    41   195   196   ar
    42    60    61    1
    43   177   178    1
    44   191   192   ar
    45   192   194   ar
    46   180   178   ar
    47   180   182   ar
    48   178   179   ar
    49    27    28    1
    50   179   181   ar
    51   168   167    2
    52    15    14    2
    53   182   181   ar
    54    62    61    1
    55    14    13    1
    56    28    31    1
    57     1     2    1
    58    24    25   ar
    59    24    26   ar
    60   171   170    1
    61   196   194   ar
    62    45    46    1
    63   169   170    1
    64   169   166    1
    65   117   116    2
    66   167   166    1
    67   116   115    1
    68    31    32    1
    69     4     3    2
    70     2     3    1
    71     2     5    1
    72     3    12   am
    73    13    12    1
    74    13    16    1
    75    12    18    1
    76   170   172    1
    77    46    47    1
    78    47    48    1
    79   166   165    1
    80    18    17    1
    81   115   118    1
    82   115   114    1
    83   165   160   am
    84    16    17    1
    85   118   119    1
    86    32    33   ar
    87    32    34   ar
    88     5     6    1
    89    37    34   ar
    90    37    39   ar
    91   163   162    1
    92    33    35   ar
    93    34    36   ar
    94   158   159    1
    95   120   119    1
    96   160   159    1
    97   160   161    2
    98     6     8   ar
    99     6     7   ar
   100   119   121    1
   101     8    10   ar
   102     7     9   ar
   103   159   162    1
   104    39    40   ar
   105   162   164    1
   106    35    36   ar
   107    36    38   ar
   108    10    11   ar
   109     9    11   ar
   110    40    38   ar
   111   149   148    1
   112   148   147   ar
   113   148   146   ar
   114   147   145   ar
   115    85    84    1
   116    71    73   ar
   117    71    69   ar
   118   146   144   ar
   119   109   108    2
   120    73    72   ar
   121   145   143   ar
   122   138   139    1
   123   113   111    1
   124    84    82   ar
   125    84    83   ar
   126   144   143   ar
   127   129   128    1
   128    69    68   ar
   129   143   142    1
   130   128   127    1
   131   108   107    1
   132    82    80   ar
   133   110   111    1
   134   110   107    1
   135   112   111    1
   136    72    70   ar
   137    93    92    2
   138   139   142    1
   139   139   140    1
   140   104   105   ar
   141   104   102   ar
   142    83    81   ar
   143   107   106    1
   144   127   126    1
   145   137   135    1
   146   105   103   ar
   147   157   156    1
   148    92    94   am
   149    92    91    1
   150    80    79   ar
   151    68    70   ar
   152    68    67    1
   153   156   155    1
   154   102   100   ar
   155   126   123    1
   156    81    79   ar
   157   140   141    2
   158    91    90    1
   159   135   136    1
   160   135   134    1
   161    79    78    1
   162   122   123    1
   163   103   101   ar
   164   153   152    2
   165    67    64    1
   166   100   101   ar
   167   100    99    1
   168   123   124    1
   169   151   150    1
   170   151   152    1
   171   151   154    1
   172    64    63    1
   173    64    65    1
   174   155   154    1
   175    78    75    1
   176   133   132    2
   177   134   131    1
   178    90    87    1
   179   125   124    2
   180    99    96    1
   181   132   131    1
   182    87    86    1
   183    87    88    1
   184    86    76   am
   185    65    66    2
   186   131   130    1
   187    76    75    1
   188    76    77    2
   189    75    74    1
   190    96    97    1
   191    96    95    1
   192    98    97    2
   193    88    89    2
