@<TRIPOS>MOLECULE
tmp/3antB00.pdb
 204 200 0 0 0
SMALL
GASTEIGER

@<TRIPOS>ATOM
      1  N         52.0460   54.1010   82.1220 N.3    36  PHE36      -0.1228
      2  CA        53.2750   54.5430   82.7760 C.3    36  PHE36       0.1721
      3  C         53.2520   56.0450   83.0910 C.2    36  PHE36       0.2437
      4  O         52.9430   56.8440   82.2150 O.2    36  PHE36      -0.2733
      5  CB        54.4760   54.2390   81.8660 C.3    36  PHE36       0.0547
      6  CG        55.7780   54.7030   82.4300 C.ar   36  PHE36      -0.0202
      7  CD1       56.2450   55.9880   82.1690 C.ar   36  PHE36      -0.0042
      8  CD2       56.5300   53.8710   83.2570 C.ar   36  PHE36      -0.0042
      9  CE1       57.4570   56.4450   82.7270 C.ar   36  PHE36      -0.0003
     10  CE2       57.7530   54.3220   83.8160 C.ar   36  PHE36      -0.0003
     11  CZ        58.2050   55.6100   83.5450 C.ar   36  PHE36      -0.0000
     12  N         53.5910   56.4420   84.3320 N.am   37  PRO37      -0.2729
     13  CA        53.8530   55.6450   85.5170 C.3    37  PRO37       0.1401
     14  C         52.6710   55.7830   86.4600 C.2    37  PRO37       0.2269
     15  O         52.6610   56.6620   87.3190 O.2    37  PRO37      -0.2865
     16  CB        55.0910   56.3260   86.1140 C.3    37  PRO37       0.0296
     17  CG        55.0030   57.7800   85.6540 C.3    37  PRO37       0.0237
     18  CD        53.9110   57.8570   84.5880 C.3    37  PRO37       0.0939
     19  N         47.6560   54.1540   77.4360 N.3   104  ASP104     -0.1225
     20  CA        49.1250   54.2250   77.3560 C.3   104  ASP104      0.1805
     21  C         49.7240   52.8110   77.1920 C.2   104  ASP104      0.2597
     22  O         49.2890   52.0740   76.3260 O.2   104  ASP104     -0.2718
     23  CB        49.6910   54.9500   78.5780 C.3   104  ASP104      0.1424
     24  CG        51.1730   55.2220   78.4470 C.2   104  ASP104      0.3668
     25  OD1       51.9710   54.6000   79.1850 O.co2 104  ASP104     -0.2456
     26  OD2       51.5310   56.0440   77.5820 O.co2 104  ASP104     -0.2456
     27  N         50.6800   52.4120   78.0220 N.am  105  TRP105     -0.1976
     28  CA        51.1920   51.0380   77.9490 C.3   105  TRP105      0.1640
     29  C         50.0820   50.0120   78.0980 C.2   105  TRP105      0.2290
     30  O         50.1130   48.9550   77.4400 O.2   105  TRP105     -0.2864
     31  CB        52.2910   50.7730   78.9790 C.3   105  TRP105      0.0576
     32  CG        53.6660   51.0840   78.4680 C.ar  105  TRP105      0.0006
     33  CD1       54.4640   52.1230   78.8500 C.ar  105  TRP105      0.0946
     34  CD2       54.3980   50.3670   77.4590 C.ar  105  TRP105      0.0152
     35  NE1       55.6560   52.0910   78.1550 N.ar  105  TRP105     -0.2442
     36  CE2       55.6460   51.0200   77.3030 C.ar  105  TRP105      0.0810
     37  CE3       54.1260   49.2310   76.6810 C.ar  105  TRP105      0.0012
     38  CZ2       56.6210   50.5780   76.4000 C.ar  105  TRP105      0.0191
     39  CZ3       55.1090   48.7850   75.7750 C.ar  105  TRP105      0.0001
     40  CH2       56.3340   49.4620   75.6430 C.ar  105  TRP105      0.0015
     41  N         48.4520   49.4900   74.7730 N.3   108  MET108     -0.1245
     42  CA        49.2290   48.5150   74.0130 C.3   108  MET108      0.1570
     43  C         48.9110   47.0710   74.4430 C.2   108  MET108      0.2261
     44  O         48.7340   46.1890   73.6070 O.2   108  MET108     -0.2867
     45  CB        50.7220   48.8100   74.1770 C.3   108  MET108      0.0387
     46  CG        51.6390   47.9030   73.3990 C.3   108  MET108      0.0595
     47  SD        52.3590   48.7460   71.9870 S.3   108  MET108     -0.1393
     48  CE        50.8670   49.1180   71.0300 C.3   108  MET108      0.0692
     49  N         46.4590   55.2300   72.8910 N.3   129  THR129     -0.1204
     50  CA        47.3920   54.2910   72.2750 C.3   129  THR129      0.1979
     51  C         46.7920   53.6190   71.0430 C.2   129  THR129      0.2459
     52  O         45.7640   52.9420   71.1410 O.2   129  THR129     -0.2732
     53  CB        47.9180   53.2440   73.2850 C.3   129  THR129      0.1783
     54  OG1       48.4090   53.9200   74.4460 O.3   129  THR129     -0.2211
     55  CG2       49.0650   52.4340   72.6800 C.3   129  THR129      0.0376
     56  N         47.4330   53.8050   69.8770 N.am  130  PRO130     -0.2728
     57  CA        46.8870   53.2020   68.6600 C.3   130  PRO130      0.1401
     58  C         47.3710   51.7600   68.4930 C.2   130  PRO130      0.2269
     59  O         48.3380   51.3510   69.1510 O.2   130  PRO130     -0.2865
     60  CB        47.4680   54.0890   67.5530 C.3   130  PRO130      0.0296
     61  CG        48.8340   54.5130   68.1050 C.3   130  PRO130      0.0237
     62  CD        48.6830   54.5550   69.6230 C.3   130  PRO130      0.0939
     63  N         49.2130   49.7200   65.8590 N.3   132  ILE132     -0.1245
     64  CA        50.0170   49.7920   64.6500 C.3   132  ILE132      0.1561
     65  C         50.6930   48.4290   64.4740 C.2   132  ILE132      0.2260
     66  O         51.5020   48.0300   65.3130 O.2   132  ILE132     -0.2867
     67  CB        51.0800   50.9340   64.7330 C.3   132  ILE132      0.0252
     68  CG1       50.3960   52.2950   64.9140 C.3   132  ILE132      0.0019
     69  CG2       51.9900   50.9260   63.4990 C.3   132  ILE132      0.0019
     70  CD1       51.3310   53.5040   64.8600 C.3   132  ILE132      0.0001
     71  N         60.5130   60.5850   70.6470 N.3   150  PHE150     -0.1241
     72  CA        60.7090   59.3390   71.3940 C.3   150  PHE150      0.1605
     73  C         62.1350   59.2030   71.9530 C.2   150  PHE150      0.2264
     74  O         62.5970   58.0920   72.2170 O.2   150  PHE150     -0.2867
     75  CB        60.3840   58.1170   70.5150 C.3   150  PHE150      0.0534
     76  CG        58.9460   58.0440   70.0510 C.ar  150  PHE150     -0.0203
     77  CD1       57.8930   58.0910   70.9640 C.ar  150  PHE150     -0.0042
     78  CD2       58.6520   57.8910   68.6990 C.ar  150  PHE150     -0.0042
     79  CE1       56.5720   58.0100   70.5330 C.ar  150  PHE150     -0.0003
     80  CE2       57.3340   57.8090   68.2570 C.ar  150  PHE150     -0.0003
     81  CZ        56.2910   57.8690   69.1740 C.ar  150  PHE150     -0.0000
     82  N         63.3920   60.2290   74.9080 N.3   152  TYR152     -0.1227
     83  CA        63.3330   59.8140   76.3160 C.3   152  TYR152      0.1736
     84  C         63.3530   58.2860   76.4780 C.2   152  TYR152      0.2595
     85  O         63.7460   57.7740   77.5250 O.2   152  TYR152     -0.2718
     86  CB        62.0810   60.3950   76.9950 C.3   152  TYR152      0.0548
     87  CG        60.7940   59.7820   76.4850 C.ar  152  TYR152     -0.0200
     88  CD1       60.2170   58.6790   77.1220 C.ar  152  TYR152     -0.0009
     89  CD2       60.1650   60.2860   75.3510 C.ar  152  TYR152     -0.0009
     90  CE1       59.0470   58.1020   76.6410 C.ar  152  TYR152      0.0417
     91  CE2       58.9920   59.7150   74.8660 C.ar  152  TYR152      0.0417
     92  CZ        58.4410   58.6260   75.5120 C.ar  152  TYR152      0.1957
     93  OH        57.2830   58.0720   75.0180 O.3   152  TYR152     -0.2866
     94  N         62.9160   57.5710   75.4430 N.am  153  GLN153     -0.1979
     95  CA        62.8480   56.1130   75.4720 C.3   153  GLN153      0.1601
     96  C         64.2240   55.4620   75.4440 C.2   153  GLN153      0.2287
     97  O         64.4020   54.3500   75.9400 O.2   153  GLN153     -0.2864
     98  CB        61.9810   55.5830   74.3250 C.3   153  GLN153      0.0394
     99  CG        60.4960   55.7760   74.5550 C.3   153  GLN153      0.0908
    100  CD        59.6330   55.1680   73.4660 C.2   153  GLN153      0.2608
    101  OE1       58.7600   55.8340   72.9180 O.2   153  GLN153     -0.2717
    102  NE2       59.8650   53.8990   73.1540 N.am  153  GLN153     -0.0878
    103  N         65.5960   55.6700   78.8520 N.3   156  PHE156     -0.1241
    104  CA        64.9490   54.6760   79.7080 C.3   156  PHE156      0.1605
    105  C         65.5720   53.2910   79.5950 C.2   156  PHE156      0.2264
    106  O         65.2750   52.4320   80.4080 O.2   156  PHE156     -0.2867
    107  CB        63.4480   54.5880   79.4110 C.3   156  PHE156      0.0534
    108  CG        62.6360   55.7190   79.9870 C.ar  156  PHE156     -0.0203
    109  CD1       63.2060   56.6530   80.8460 C.ar  156  PHE156     -0.0042
    110  CD2       61.2810   55.8300   79.6890 C.ar  156  PHE156     -0.0042
    111  CE1       62.4420   57.6960   81.3870 C.ar  156  PHE156     -0.0003
    112  CE2       60.5110   56.8580   80.2340 C.ar  156  PHE156     -0.0003
    113  CZ        61.1000   57.7960   81.0840 C.ar  156  PHE156     -0.0000
    114  N         63.9020   59.4760   88.6730 N.3   166  LEU166     -0.1245
    115  CA        62.4730   59.4250   89.0210 C.3   166  LEU166      0.1561
    116  C         62.2450   59.1050   90.5040 C.2   166  LEU166      0.2260
    117  O         61.2660   59.5540   91.0990 O.2   166  LEU166     -0.2867
    118  CB        61.7350   58.4190   88.1300 C.3   166  LEU166      0.0270
    119  CG        61.8370   58.6650   86.6200 C.3   166  LEU166      0.0019
    120  CD1       61.6450   57.3780   85.8650 C.3   166  LEU166      0.0001
    121  CD2       60.8480   59.7230   86.1450 C.3   166  LEU166      0.0001
    122  N         55.1810   65.4410   85.9940 N.3   177  LEU177     -0.1245
    123  CA        54.5590   64.5810   84.9770 C.3   177  LEU177      0.1561
    124  C         53.0690   64.8420   84.7920 C.2   177  LEU177      0.2260
    125  O         52.5990   64.9460   83.6700 O.2   177  LEU177     -0.2867
    126  CB        54.7850   63.0960   85.2950 C.3   177  LEU177      0.0270
    127  CG        56.2300   62.6370   85.1650 C.3   177  LEU177      0.0019
    128  CD1       56.4190   61.2520   85.7540 C.3   177  LEU177      0.0001
    129  CD2       56.6830   62.6810   83.7220 C.3   177  LEU177      0.0001
    130  N         61.1810   66.8380   76.2330 N.3   188  MET188     -0.1245
    131  CA        61.1630   65.4490   75.7560 C.3   188  MET188      0.1570
    132  C         62.1360   65.2200   74.5950 C.2   188  MET188      0.2261
    133  O         62.4800   64.0750   74.2780 O.2   188  MET188     -0.2867
    134  CB        59.7460   65.0370   75.3290 C.3   188  MET188      0.0387
    135  CG        58.7080   64.9870   76.4520 C.3   188  MET188      0.0595
    136  SD        58.9550   63.6510   77.6470 S.3   188  MET188     -0.1393
    137  CE        57.4020   63.7110   78.5480 C.3   188  MET188      0.0692
    138  N         65.8700   63.8540   82.8070 N.3   197  LEU197     -0.1245
    139  CA        64.5470   64.1450   82.2680 C.3   197  LEU197      0.1561
    140  C         63.9740   65.4480   82.8220 C.2   197  LEU197      0.2260
    141  O         63.2590   66.1590   82.1200 O.2   197  LEU197     -0.2867
    142  CB        63.5990   62.9750   82.5570 C.3   197  LEU197      0.0270
    143  CG        62.1800   62.9280   81.9780 C.3   197  LEU197      0.0019
    144  CD1       62.1830   62.9370   80.4580 C.3   197  LEU197      0.0001
    145  CD2       61.4720   61.6920   82.4930 C.3   197  LEU197      0.0001
    146  N         59.6000   49.3810   79.0190 N.3   235  TYR235     -0.1241
    147  CA        60.3120   49.9390   77.8450 C.3   235  TYR235      0.1605
    148  C         61.5310   49.1370   77.3560 C.2   235  TYR235      0.2264
    149  O         62.1210   49.4710   76.3190 O.2   235  TYR235     -0.2867
    150  CB        60.8160   51.3520   78.1360 C.3   235  TYR235      0.0534
    151  CG        59.7740   52.4070   78.3650 C.ar  235  TYR235     -0.0201
    152  CD1       59.3680   53.2520   77.3270 C.ar  235  TYR235     -0.0009
    153  CD2       59.2200   52.5910   79.6240 C.ar  235  TYR235     -0.0009
    154  CE1       58.4280   54.2460   77.5440 C.ar  235  TYR235      0.0417
    155  CE2       58.2800   53.5660   79.8520 C.ar  235  TYR235      0.0417
    156  CZ        57.8800   54.3930   78.8180 C.ar  235  TYR235      0.1957
    157  OH        56.9450   55.3710   79.0750 O.3   235  TYR235     -0.2866
    158  N         52.8120   62.7070   72.5130 N.3   267  VAL267     -0.1231
    159  CA        53.5260   61.4600   72.2860 C.3   267  VAL267      0.1692
    160  C         52.6500   60.4660   71.5230 C.2   267  VAL267      0.2591
    161  O         53.0870   59.8940   70.5230 O.2   267  VAL267     -0.2718
    162  CB        54.1250   60.8480   73.5930 C.3   267  VAL267      0.0266
    163  CG1       53.0980   60.7530   74.6930 C.3   267  VAL267      0.0020
    164  CG2       54.7260   59.4700   73.3260 C.3   267  VAL267      0.0020
    165  N         51.4240   60.2550   71.9930 N.am  268  LEU268     -0.1980
    166  CA        50.4820   59.3820   71.2900 C.3   268  LEU268      0.1596
    167  C         49.5080   60.2570   70.5160 C.2   268  LEU268      0.2287
    168  O         48.3500   60.4540   70.9020 O.2   268  LEU268     -0.2864
    169  CB        49.7780   58.4410   72.2570 C.3   268  LEU268      0.0297
    170  CG        50.6900   57.4960   73.0370 C.3   268  LEU268      0.0022
    171  CD1       49.8790   56.7560   74.0810 C.3   268  LEU268      0.0001
    172  CD2       51.4110   56.5090   72.1210 C.3   268  LEU268      0.0001
    173  N         48.4410   59.1720   64.5550 N.3   272  MET272     -0.1245
    174  CA        49.0690   57.8620   64.6830 C.3   272  MET272      0.1570
    175  C         48.0390   56.7300   64.6110 C.2   272  MET272      0.2261
    176  O         48.3930   55.5740   64.3870 O.2   272  MET272     -0.2867
    177  CB        49.9220   57.7800   65.9620 C.3   272  MET272      0.0387
    178  CG        51.2930   58.4670   65.8520 C.3   272  MET272      0.0595
    179  SD        52.2240   58.6490   67.4190 S.3   272  MET272     -0.1393
    180  CE        52.2810   56.9520   67.9780 C.3   272  MET272      0.0692
    181  N         47.9070   63.9180   77.4290 N.3   293  HIS293     -0.1226
    182  CA        48.2120   62.5150   77.6440 C.3   293  HIS293      0.1752
    183  C         47.4300   61.8310   78.7690 C.2   293  HIS293      0.2596
    184  O         47.0770   60.6570   78.6450 O.2   293  HIS293     -0.2718
    185  CB        49.7000   62.3300   77.9360 C.3   293  HIS293      0.0759
    186  CG        50.0830   60.8980   78.1060 C.ar  293  HIS293      0.0818
    187  ND1       50.0680   60.0030   77.0580 N.ar  293  HIS293     -0.2268
    188  CD2       50.4520   60.1950   79.2010 C.ar  293  HIS293      0.1154
    189  CE1       50.4310   58.8120   77.4970 C.ar  293  HIS293      0.1986
    190  NE2       50.6690   58.9000   78.7930 N.ar  293  HIS293     -0.2212
    191  N         47.1870   62.5560   79.8650 N.am  294  TRP294     -0.1976
    192  CA        46.6020   61.9660   81.0860 C.3   294  TRP294      0.1640
    193  C         45.0860   62.0140   81.0570 C.2   294  TRP294      0.2290
    194  O         44.4500   62.5680   81.9600 O.2   294  TRP294     -0.2864
    195  CB        47.1480   62.6810   82.3150 C.3   294  TRP294      0.0576
    196  CG        48.6180   62.8570   82.2010 C.ar  294  TRP294      0.0006
    197  CD1       49.2890   64.0110   81.8820 C.ar  294  TRP294      0.0946
    198  CD2       49.6090   61.8390   82.3390 C.ar  294  TRP294      0.0152
    199  NE1       50.6440   63.7760   81.8460 N.ar  294  TRP294     -0.2442
    200  CE2       50.8680   62.4490   82.1220 C.ar  294  TRP294      0.0810
    201  CE3       49.5610   60.4710   82.6450 C.ar  294  TRP294      0.0012
    202  CZ2       52.0700   61.7380   82.1990 C.ar  294  TRP294      0.0191
    203  CZ3       50.7650   59.7620   82.7170 C.ar  294  TRP294      0.0001
    204  CH2       51.9980   60.4030   82.4910 C.ar  294  TRP294      0.0015
@<TRIPOS>BOND
     1    69    67    1
     2   176   175    2
     3    65    64    1
     4    65    66    2
     5   173   174    1
     6   175   174    1
     7    64    67    1
     8    64    63    1
     9   174   177    1
    10    67    68    1
    11    70    68    1
    12   178   177    1
    13   178   179    1
    14   179   180    1
    15    60    61    1
    16    60    57    1
    17    61    62    1
    18    80    78   ar
    19    80    81   ar
    20    58    57    1
    21    58    59    2
    22    57    56    1
    23    78    76   ar
    24    81    79   ar
    25    62    56    1
    26    56    51   am
    27    76    75    1
    28    76    77   ar
    29    75    72    1
    30   167   168    2
    31   167   166    1
    32   161   160    2
    33    79    77   ar
    34    71    72    1
    35    48    47    1
    36    51    52    2
    37    51    50    1
    38   166   165    1
    39   166   169    1
    40    72    73    1
    41   160   165   am
    42   160   159    1
    43    73    74    2
    44    47    46    1
    45   172   170    1
    46   169   170    1
    47    50    49    1
    48    50    53    1
    49   159   158    1
    50   159   162    1
    51    55    53    1
    52   101   100    2
    53   170   171    1
    54   102   100   am
    55    53    54    1
    56   164   162    1
    57    46    45    1
    58   100    99    1
    59   162   163    1
    60    44    43    2
    61    42    45    1
    62    42    43    1
    63    42    41    1
    64   133   132    2
    65    98    99    1
    66    98    95    1
    67   132   131    1
    68    91    89   ar
    69    91    92   ar
    70    82    83    1
    71    93    92    1
    72   134   131    1
    73   134   135    1
    74    89    87   ar
    75    94    95    1
    76    94    84   am
    77    96    95    1
    78    96    97    2
    79    92    90   ar
    80    40    39   ar
    81    40    38   ar
    82   131   130    1
    83    39    37   ar
    84    83    84    1
    85    83    86    1
    86   149   148    2
    87    22    21    2
    88    38    36   ar
    89   135   136    1
    90    84    85    2
    91    87    86    1
    92    87    88   ar
    93    90    88   ar
    94    37    34   ar
    95   187   189   ar
    96   187   186   ar
    97    21    20    1
    98    21    27   am
    99    36    34   ar
   100    36    35   ar
   101   152   154   ar
   102   152   151   ar
   103   148   147    1
   104    20    19    1
   105    20    23    1
   106   181   182    1
   107    30    29    2
   108    34    32   ar
   109   189   190   ar
   110   154   156   ar
   111    26    24   ar
   112   182   185    1
   113   182   183    1
   114   136   137    1
   115   147   150    1
   116   147   146    1
   117   185   186    1
   118    28    27    1
   119    28    29    1
   120    28    31    1
   121   186   188   ar
   122   150   151    1
   123    35    33   ar
   124   151   153   ar
   125    24    23    1
   126    24    25   ar
   127    32    33   ar
   128    32    31    1
   129   184   183    2
   130   183   191   am
   131   190   188   ar
   132   156   157    1
   133   156   155   ar
   134   103   104    1
   135   107   104    1
   136   107   108    1
   137   105   104    1
   138   105   106    2
   139   153   155   ar
   140   110   108   ar
   141   110   112   ar
   142   191   192    1
   143   108   109   ar
   144   112   113   ar
   145   144   143    1
   146   109   111   ar
   147   193   192    1
   148   193   194    2
   149   113   111   ar
   150   192   195    1
   151   199   197   ar
   152   199   200   ar
   153     5     6    1
   154     5     2    1
   155   197   196   ar
   156   143   145    1
   157   143   142    1
   158   141   140    2
   159   200   202   ar
   160   200   198   ar
   161     1     2    1
   162     7     6   ar
   163     7     9   ar
   164   202   204   ar
   165   196   195    1
   166   196   198   ar
   167     4     3    2
   168   139   142    1
   169   139   138    1
   170   139   140    1
   171   198   201   ar
   172     6     8   ar
   173   204   203   ar
   174   201   203   ar
   175     9    11   ar
   176     2     3    1
   177     3    12   am
   178     8    10   ar
   179    11    10   ar
   180   125   124    2
   181   129   127    1
   182    12    18    1
   183    12    13    1
   184    18    17    1
   185   124   123    1
   186   123   126    1
   187   123   122    1
   188   127   126    1
   189   127   128    1
   190    13    16    1
   191    13    14    1
   192    17    16    1
   193   120   119    1
   194   121   119    1
   195    14    15    2
   196   119   118    1
   197   118   115    1
   198   114   115    1
   199   115   116    1
   200   116   117    2
