@<TRIPOS>MOLECULE
tmp/3anvA00.pdb
 145 139 0 0 0
SMALL
GASTEIGER

@<TRIPOS>ATOM
      1  N         -0.6580   72.5730   23.5740 N.3    42  HIS42      -0.1241
      2  CA        -1.4340   71.3640   23.6470 C.3    42  HIS42       0.1621
      3  C         -0.5270   70.2820   24.2090 C.2    42  HIS42       0.2264
      4  O          0.5980   70.1610   23.7630 O.2    42  HIS42      -0.2867
      5  CB        -1.9160   70.9560   22.2610 C.3    42  HIS42       0.0745
      6  CG        -3.1120   70.0640   22.3040 C.ar   42  HIS42       0.0817
      7  ND1       -3.1040   68.8450   22.9510 N.ar   42  HIS42      -0.2268
      8  CD2       -4.3760   70.2440   21.8490 C.ar   42  HIS42       0.1154
      9  CE1       -4.3040   68.2970   22.8640 C.ar   42  HIS42       0.1986
     10  NE2       -5.0880   69.1200   22.1860 N.ar   42  HIS42      -0.2212
     11  N         -0.9180   66.9060   24.2110 N.3    44  LYS44      -0.1231
     12  CA        -1.1360   65.5250   23.7850 C.3    44  LYS44       0.1693
     13  C          0.0690   64.8290   23.1760 C.2    44  LYS44       0.2592
     14  O          0.0750   63.6070   23.0220 O.2    44  LYS44      -0.2718
     15  CB        -2.3540   65.4020   22.8710 C.3    44  LYS44       0.0285
     16  CG        -2.1520   65.8120   21.4470 C.3    44  LYS44       0.0035
     17  CD        -3.5000   65.6060   20.7600 C.3    44  LYS44       0.0206
     18  CE        -3.3680   65.6790   19.2810 C.3    44  LYS44       0.1093
     19  NZ        -2.8250   67.0140   18.9890 N.3    44  LYS44      -0.1314
     20  N          1.0880   65.5920   22.8130 N.am   45  THR45      -0.1953
     21  CA         2.2790   64.9770   22.2960 C.3    45  THR45       0.1897
     22  C          3.0610   64.2070   23.3410 C.2    45  THR45       0.2313
     23  O          3.6960   63.2050   23.0190 O.2    45  THR45      -0.2863
     24  CB         3.2250   65.9930   21.6470 C.3    45  THR45       0.1794
     25  OG1        2.5400   66.6310   20.5580 O.3    45  THR45      -0.2208
     26  CG2        4.4330   65.2570   21.0850 C.3    45  THR45       0.0378
     27  N         -9.9240   70.5410   24.3650 N.3    85  ALA85      -0.1245
     28  CA        -9.9420   70.9980   22.9860 C.3    85  ALA85       0.1562
     29  C        -10.5990   69.9480   22.1180 C.2    85  ALA85       0.2260
     30  O         -9.9860   69.3910   21.2020 O.2    85  ALA85      -0.2867
     31  CB        -8.5390   71.2930   22.5110 C.3    85  ALA85       0.0290
     32  N        -15.2390   73.2330   24.3240 N.3   109  LEU109     -0.1245
     33  CA       -15.4240   73.6090   22.9500 C.3   109  LEU109      0.1561
     34  C        -16.6830   72.9330   22.4740 C.2   109  LEU109      0.2260
     35  O        -16.9880   71.8260   22.8950 O.2   109  LEU109     -0.2867
     36  CB       -14.2930   73.0470   22.0850 C.3   109  LEU109      0.0270
     37  CG       -13.1730   73.9600   21.6240 C.3   109  LEU109      0.0019
     38  CD1      -12.5200   74.5830   22.8500 C.3   109  LEU109      0.0001
     39  CD2      -12.1700   73.1500   20.8180 C.3   109  LEU109      0.0001
     40  N        -15.8260   76.1120   18.1150 N.3   135  LYS135     -0.1245
     41  CA       -14.8690   75.4680   17.2170 C.3   135  LYS135      0.1561
     42  C        -15.1850   75.8540   15.7900 C.2   135  LYS135      0.2260
     43  O        -16.2880   75.6190   15.3260 O.2   135  LYS135     -0.2867
     44  CB       -14.9130   73.9390   17.3570 C.3   135  LYS135      0.0271
     45  CG       -14.0940   73.1580   16.3060 C.3   135  LYS135      0.0035
     46  CD       -12.6020   73.0630   16.6770 C.3   135  LYS135      0.0206
     47  CE       -11.7210   72.5030   15.5330 C.3   135  LYS135      0.1093
     48  NZ       -11.3670   71.0320   15.6480 N.3   135  LYS135     -0.1314
     49  N        -12.9360   68.6140    9.7010 N.3   142  ARG142     -0.1245
     50  CA       -12.9730   67.7230   10.8560 C.3   142  ARG142      0.1563
     51  C        -14.2000   68.0300   11.7240 C.2   142  ARG142      0.2260
     52  O        -15.3120   67.5960   11.4120 O.2   142  ARG142     -0.2867
     53  CB       -11.6690   67.8700   11.6540 C.3   142  ARG142      0.0307
     54  CG       -11.0280   66.5510   12.0450 C.3   142  ARG142      0.0489
     55  CD       -11.1090   66.3100   13.5400 C.3   142  ARG142      0.2205
     56  NE        -9.8900   66.7300   14.2330 N.pl3 142  ARG142     -0.0865
     57  CZ        -9.7020   67.9240   14.7940 C.cat 142  ARG142      0.5346
     58  NH1      -10.6590   68.8520   14.7510 N.pl3 142  ARG142      0.1354
     59  NH2       -8.5510   68.1910   15.4060 N.pl3 142  ARG142      0.1354
     60  N        -12.0510   78.9730   18.2880 N.3   173  TYR173     -0.1241
     61  CA       -10.9240   78.0750   18.2810 C.3   173  TYR173      0.1605
     62  C        -10.8840   77.4030   16.9160 C.2   173  TYR173      0.2264
     63  O        -11.8660   76.8000   16.4950 O.2   173  TYR173     -0.2867
     64  CB       -11.1280   77.0370   19.3980 C.3   173  TYR173      0.0534
     65  CG        -9.9610   76.1160   19.6420 C.ar  173  TYR173     -0.0201
     66  CD1       -9.6560   75.0870   18.7490 C.ar  173  TYR173     -0.0009
     67  CD2       -9.1720   76.2520   20.7860 C.ar  173  TYR173     -0.0009
     68  CE1       -8.5850   74.2150   19.0010 C.ar  173  TYR173      0.0417
     69  CE2       -8.1160   75.4080   21.0300 C.ar  173  TYR173      0.0417
     70  CZ        -7.8230   74.3920   20.1410 C.ar  173  TYR173      0.1957
     71  OH        -6.7490   73.5650   20.4040 O.3   173  TYR173     -0.2866
     72  N         -8.2760   74.7950   14.3980 N.3   175  HIS175     -0.1241
     73  CA        -7.0470   74.0180   14.2800 C.3   175  HIS175      0.1621
     74  C         -6.7440   73.7350   12.8150 C.2   175  HIS175      0.2264
     75  O         -7.4880   73.0330   12.1340 O.2   175  HIS175     -0.2867
     76  CB        -7.1130   72.7320   15.1080 C.3   175  HIS175      0.0745
     77  CG        -5.9950   71.7750   14.8290 C.ar  175  HIS175      0.0817
     78  ND1       -4.6830   72.0390   15.1690 N.ar  175  HIS175     -0.2268
     79  CD2       -5.9920   70.5620   14.2230 C.ar  175  HIS175      0.1154
     80  CE1       -3.9210   71.0280   14.7850 C.ar  175  HIS175      0.1986
     81  NE2       -4.6910   70.1170   14.2120 N.ar  175  HIS175     -0.2212
     82  N         -0.6910   69.5320    7.5110 N.3   180  TYR180     -0.1241
     83  CA         0.0330   68.2640    7.4450 C.3   180  TYR180      0.1605
     84  C          0.0130   67.6740    6.0290 C.2   180  TYR180      0.2264
     85  O          0.8840   66.8810    5.6620 O.2   180  TYR180     -0.2867
     86  CB        -0.4750   67.2750    8.5140 C.3   180  TYR180      0.0534
     87  CG         0.0370   67.6390    9.8950 C.ar  180  TYR180     -0.0201
     88  CD1       -0.5750   68.6430   10.6490 C.ar  180  TYR180     -0.0009
     89  CD2        1.1670   67.0260   10.4200 C.ar  180  TYR180     -0.0009
     90  CE1       -0.0890   69.0050   11.9000 C.ar  180  TYR180      0.0417
     91  CE2        1.6590   67.3770   11.6690 C.ar  180  TYR180      0.0417
     92  CZ         1.0310   68.3690   12.4040 C.ar  180  TYR180      0.1957
     93  OH         1.5290   68.7110   13.6400 O.3   180  TYR180     -0.2866
     94  N         -3.7140   77.2560   15.5970 N.3   219  GLY219     -0.1210
     95  CA        -2.3550   76.7870   15.7210 C.3   219  GLY219      0.1956
     96  C         -2.1610   75.3250   15.4430 C.2   219  GLY219      0.2613
     97  O         -3.0130   74.4820   15.7490 O.2   219  GLY219     -0.2717
     98  N         -1.0360   75.0570   14.8050 N.am  220  SER220     -0.1938
     99  CA        -0.5610   73.7340   14.5520 C.3   220  SER220      0.2055
    100  C          0.9390   73.9590   14.5800 C.2   220  SER220      0.2643
    101  O          1.4080   75.0960   14.4400 O.2   220  SER220     -0.2714
    102  CB        -1.0290   73.2460   13.1830 C.3   220  SER220      0.2130
    103  OG        -0.4230   74.0210   12.1460 O.3   220  SER220     -0.2179
    104  N          1.6930   72.8950   14.7880 N.am  221  THR221     -0.1950
    105  CA         3.1410   73.0160   14.8890 C.3   221  THR221      0.1897
    106  C          3.7980   73.5460   13.6110 C.2   221  THR221      0.2313
    107  O          4.6590   74.4110   13.6760 O.2   221  THR221     -0.2863
    108  CB         3.7550   71.6950   15.3870 C.3   221  THR221      0.1794
    109  OG1        3.5620   71.6280   16.8020 O.3   221  THR221     -0.2208
    110  CG2        5.2550   71.6040   15.0630 C.3   221  THR221      0.0378
    111  N         -2.0690   77.6420   19.8260 N.3   238  HIS238     -0.1227
    112  CA        -2.0970   76.4020   20.5920 C.3   238  HIS238      0.1737
    113  C         -1.4510   75.2030   19.8980 C.2   238  HIS238      0.2438
    114  O         -2.0830   74.1510   19.7990 O.2   238  HIS238     -0.2733
    115  CB        -3.5410   76.0430   20.9680 C.3   238  HIS238      0.0758
    116  CG        -4.4810   76.0340   19.7980 C.ar  238  HIS238      0.0818
    117  ND1       -5.5370   76.9170   19.6810 N.ar  238  HIS238     -0.2268
    118  CD2       -4.5150   75.2580   18.6890 C.ar  238  HIS238      0.1154
    119  CE1       -6.1790   76.6850   18.5480 C.ar  238  HIS238      0.1986
    120  NE2       -5.5810   75.6820   17.9290 N.ar  238  HIS238     -0.2212
    121  N         -0.1900   75.3320   19.4460 N.am  239  PRO239     -0.2718
    122  CA         0.4980   74.1480   18.9270 C.3   239  PRO239      0.1535
    123  C          0.9060   73.2010   20.0720 C.2   239  PRO239      0.2599
    124  O          0.8670   73.5950   21.2460 O.2   239  PRO239     -0.2715
    125  CB         1.7580   74.7300   18.2790 C.3   239  PRO239      0.0310
    126  CG         2.0840   75.9460   19.1520 C.3   239  PRO239      0.0237
    127  CD         0.7000   76.5070   19.5480 C.3   239  PRO239      0.0939
    128  N          1.2790   71.9680   19.7400 N.am  240  GLY240     -0.1941
    129  CA         1.7520   71.0260   20.7670 C.3   240  GLY240      0.2014
    130  C          2.9800   70.1970   20.3900 C.2   240  GLY240      0.2638
    131  O          3.9270   70.0700   21.1820 O.2   240  GLY240     -0.2714
    132  N          2.9640   69.6030   19.2020 N.am  241  ASN241     -0.1972
    133  CA         4.0420   68.6970   18.7910 C.3   241  ASN241      0.1688
    134  C          5.4620   69.2870   18.8800 C.2   241  ASN241      0.2292
    135  O          6.4440   68.5620   19.0860 O.2   241  ASN241     -0.2864
    136  CB         3.8260   68.2430   17.3590 C.3   241  ASN241      0.1181
    137  CG         5.0220   67.5240   16.8140 C.2   241  ASN241      0.2629
    138  OD1        5.9870   68.1530   16.3900 O.2   241  ASN241     -0.2716
    139  ND2        4.9990   66.2020   16.8680 N.am  241  ASN241     -0.0877
    140  N          3.8790   62.1000   18.5850 N.3   346  CYS346     -0.1235
    141  CA         2.7150   61.8550   19.4140 C.3   346  CYS346      0.1677
    142  C          2.3870   60.3630   19.4350 C.2   346  CYS346      0.2270
    143  O          2.0390   59.8260   20.4800 O.2   346  CYS346     -0.2867
    144  CB         1.4720   62.6360   18.9400 C.3   346  CYS346      0.0956
    145  SG         1.7080   64.4110   18.4140 S.3   346  CYS346     -0.0801
@<TRIPOS>BOND
     1    85    84    2
     2    84    83    1
     3    83    82    1
     4    83    86    1
     5    86    87    1
     6    49    50    1
     7    87    89   ar
     8    87    88   ar
     9    89    91   ar
    10    88    90   ar
    11    50    53    1
    12    50    51    1
    13    52    51    2
    14    53    54    1
    15    91    92   ar
    16    90    92   ar
    17    54    55    1
    18    75    74    2
    19   103   102    1
    20    92    93    1
    21    74    73    1
    22   102    99    1
    23    55    56    1
    24   106   107    2
    25   106   105    1
    26    81    79   ar
    27    81    80   ar
    28    79    77   ar
    29    56    57    2
    30    73    72    1
    31    73    76    1
    32   101   100    2
    33    99   100    1
    34    99    98    1
    35   100   104   am
    36    58    57    1
    37    80    78   ar
    38   104   105    1
    39    57    59    1
    40    98    96   am
    41    77    76    1
    42    77    78   ar
    43   105   108    1
    44   110   108    1
    45    43    42    2
    46   108   109    1
    47    96    95    1
    48    96    97    2
    49    47    48    1
    50    47    46    1
    51    94    95    1
    52    42    41    1
    53    45    46    1
    54    45    44    1
    55   138   137    2
    56    63    62    2
    57   137   139   am
    58   137   136    1
    59    62    61    1
    60    41    44    1
    61    41    40    1
    62   136   133    1
    63   120   119   ar
    64   120   118   ar
    65   125   122    1
    66   125   126    1
    67    61    60    1
    68    61    64    1
    69   145   144    1
    70   119   117   ar
    71   140   141    1
    72   118   116   ar
    73    66    68   ar
    74    66    65   ar
    75   133   134    1
    76   133   132    1
    77   134   135    2
    78   122   121    1
    79   122   123    1
    80   144   141    1
    81    19    18    1
    82    68    70   ar
    83   126   127    1
    84   132   130   am
    85    18    17    1
    86    64    65    1
    87   141   142    1
    88   142   143    2
    89   121   127    1
    90   121   113   am
    91    65    67   ar
    92   117   116   ar
    93   128   123   am
    94   128   129    1
    95   116   115    1
    96   114   113    2
    97   111   112    1
    98   113   112    1
    99   123   124    2
   100    70    71    1
   101    70    69   ar
   102   130   129    1
   103   130   131    2
   104    25    24    1
   105   112   115    1
   106    17    16    1
   107    67    69   ar
   108    39    37    1
   109    26    24    1
   110    30    29    2
   111    16    15    1
   112    37    36    1
   113    37    38    1
   114    24    21    1
   115     8    10   ar
   116     8     6   ar
   117    36    33    1
   118    29    28    1
   119    10     9   ar
   120     5     6    1
   121     5     2    1
   122    21    20    1
   123    21    22    1
   124     6     7   ar
   125    34    35    2
   126    34    33    1
   127    31    28    1
   128    20    13   am
   129     9     7   ar
   130    15    12    1
   131    33    32    1
   132    28    27    1
   133    23    22    2
   134    14    13    2
   135    13    12    1
   136     1     2    1
   137     2     3    1
   138     4     3    2
   139    12    11    1
