@<TRIPOS>MOLECULE
tmp/3anxB00.pdb
 157 147 0 0 0
SMALL
GASTEIGER

@<TRIPOS>ATOM
      1  N         37.5870   25.0660  137.1540 N.3    33  GLN33      -0.1245
      2  CA        37.7150   26.5100  137.3390 C.3    33  GLN33       0.1566
      3  C         36.8180   27.1500  138.4120 C.2    33  GLN33       0.2260
      4  O         35.9320   26.5150  138.9760 O.2    33  GLN33      -0.2867
      5  CB        37.5840   27.2580  135.9840 C.3    33  GLN33       0.0367
      6  CG        36.4270   26.7600  135.0490 C.3    33  GLN33       0.0905
      7  CD        36.7190   27.0950  133.5920 C.2    33  GLN33       0.2608
      8  OE1       36.3160   26.3550  132.6470 O.2    33  GLN33      -0.2717
      9  NE2       37.4810   28.2100  133.3910 N.am   33  GLN33      -0.0878
     10  N         29.1170   36.2840  132.6820 N.3    47  LEU47      -0.1245
     11  CA        29.7370   35.0690  133.2020 C.3    47  LEU47       0.1561
     12  C         31.2060   35.1690  133.2300 C.2    47  LEU47       0.2260
     13  O         31.8790   35.4030  132.1830 O.2    47  LEU47      -0.2867
     14  CB        29.3230   33.8050  132.4460 C.3    47  LEU47       0.0270
     15  CG        29.8700   32.3630  132.6680 C.3    47  LEU47       0.0019
     16  CD1       31.2620   32.2410  132.4770 C.3    47  LEU47       0.0001
     17  CD2       29.6770   31.9990  134.0140 C.3    47  LEU47       0.0001
     18  N         34.9790   33.3140  134.2880 N.3    49  LEU49      -0.1245
     19  CA        35.7810   32.1240  134.5620 C.3    49  LEU49       0.1561
     20  C         37.0920   32.6350  135.1130 C.2    49  LEU49       0.2260
     21  O         37.7180   33.5330  134.5300 O.2    49  LEU49      -0.2867
     22  CB        35.9850   31.2280  133.3380 C.3    49  LEU49       0.0270
     23  CG        34.8340   30.2220  133.1480 C.3    49  LEU49       0.0019
     24  CD1       33.5640   30.8040  133.5140 C.3    49  LEU49       0.0001
     25  CD2       34.6990   29.7920  131.7530 C.3    49  LEU49       0.0001
     26  N         33.6690   35.1650  130.5090 N.3    54  GLN54      -0.1245
     27  CA        33.5050   34.3180  129.3480 C.3    54  GLN54       0.1566
     28  C         32.5450   35.0420  128.3980 C.2    54  GLN54       0.2260
     29  O         32.7810   35.1020  127.1660 O.2    54  GLN54      -0.2867
     30  CB        32.9800   32.9150  129.7090 C.3    54  GLN54       0.0367
     31  CG        33.8470   31.8430  129.0980 C.3    54  GLN54       0.0905
     32  CD        35.3960   32.2030  129.2990 C.2    54  GLN54       0.2608
     33  OE1       36.2380   31.9530  128.4350 O.2    54  GLN54      -0.2717
     34  NE2       35.7360   32.8280  130.4710 N.am   54  GLN54      -0.0878
     35  N         34.9610   22.3560  120.0300 N.3    84  VAL84      -0.1231
     36  CA        35.8450   22.1800  121.1450 C.3    84  VAL84       0.1692
     37  C         35.6640   23.3390  122.0290 C.2    84  VAL84       0.2593
     38  O         35.7440   24.4770  121.5290 O.2    84  VAL84      -0.2718
     39  CB        37.1930   22.3390  120.6770 C.3    84  VAL84       0.0266
     40  CG1       38.1610   22.5090  121.9260 C.3    84  VAL84       0.0020
     41  CG2       37.5180   21.1880  119.6470 C.3    84  VAL84       0.0020
     42  N         35.4640   23.0940  123.3310 N.am   85  GLY85      -0.1942
     43  CA        35.1300   24.1810  124.2730 C.3    85  GLY85       0.2014
     44  C         33.6890   24.6680  124.2380 C.2    85  GLY85       0.2639
     45  O         32.8150   23.9930  123.6940 O.2    85  GLY85      -0.2714
     46  N         33.4330   25.8210  124.8740 N.am   86  GLY86      -0.1939
     47  CA        32.1580   26.5570  124.7380 C.3    86  GLY86       0.2014
     48  C         31.0020   26.1220  125.6150 C.2    86  GLY86       0.2639
     49  O         29.8100   26.0680  125.2090 O.2    86  GLY86      -0.2714
     50  N         31.3350   25.8580  126.8580 N.am   87  GLY87      -0.1939
     51  CA        30.3670   25.4280  127.8940 C.3    87  GLY87       0.2014
     52  C         28.9660   25.9390  127.7500 C.2    87  GLY87       0.2638
     53  O         28.0240   25.1510  127.7220 O.2    87  GLY87      -0.2714
     54  N         28.8520   27.2550  127.5990 N.am   88  GLU88      -0.1977
     55  CA        27.5970   27.9510  127.4490 C.3    88  GLU88       0.1602
     56  C         26.6390   27.2980  126.4350 C.2    88  GLU88       0.2287
     57  O         25.3980   27.1900  126.6700 O.2    88  GLU88      -0.2864
     58  CB        27.9070   29.3800  127.0310 C.3    88  GLU88       0.0415
     59  CG        29.0390   30.0550  127.8340 C.3    88  GLU88       0.1163
     60  CD        30.0930   30.6050  126.9360 C.2    88  GLU88       0.3649
     61  OE1       30.8640   31.4730  127.3420 O.co2  88  GLU88      -0.2457
     62  OE2       30.1330   30.1970  125.7660 O.co2  88  GLU88      -0.2457
     63  N         32.6730   19.1340  122.5610 N.3   107  VAL107     -0.1231
     64  CA        33.5970   18.4700  123.4570 C.3   107  VAL107      0.1692
     65  C         34.2750   19.3780  124.4620 C.2   107  VAL107      0.2592
     66  O         35.0540   20.2560  124.0950 O.2   107  VAL107     -0.2718
     67  CB        34.6390   17.6160  122.7360 C.3   107  VAL107      0.0266
     68  CG1       35.6090   18.4940  121.8880 C.3   107  VAL107      0.0020
     69  CG2       35.3940   16.8440  123.7620 C.3   107  VAL107      0.0020
     70  N         33.9970   19.1440  125.7350 N.am  108  ASP108     -0.1960
     71  CA        34.3870   20.0980  126.7520 C.3   108  ASP108      0.1840
     72  C         34.6590   19.4760  128.1600 C.2   108  ASP108      0.2622
     73  O         33.7390   18.9520  128.8070 O.2   108  ASP108     -0.2715
     74  CB        33.3500   21.2400  126.7460 C.3   108  ASP108      0.1450
     75  CG        33.6530   22.3440  127.7890 C.2   108  ASP108      0.3671
     76  OD1       33.2680   22.2060  128.9780 O.co2 108  ASP108     -0.2456
     77  OD2       34.2450   23.3900  127.4270 O.co2 108  ASP108     -0.2456
     78  N         35.9300   19.4920  128.5950 N.am  109  ILE109     -0.1963
     79  CA        36.2890   19.3960  130.0290 C.3   109  ILE109      0.1727
     80  C         35.3220   20.2810  130.8520 C.2   109  ILE109      0.2616
     81  O         34.9610   21.3700  130.4100 O.2   109  ILE109     -0.2715
     82  CB        37.7210   19.9350  130.2880 C.3   109  ILE109      0.0290
     83  CG1       38.7820   18.8580  130.2970 C.3   109  ILE109      0.0022
     84  CG2       37.8510   20.4720  131.6600 C.3   109  ILE109      0.0023
     85  CD1       40.1440   19.4220  130.6560 C.3   109  ILE109      0.0001
     86  N         34.9150   19.8390  132.0360 N.am  110  ASP110     -0.1971
     87  CA        34.0330   20.5760  132.9710 C.3   110  ASP110      0.1709
     88  C         32.5270   20.5060  132.6990 C.2   110  ASP110      0.2293
     89  O         31.9310   21.4890  132.2080 O.2   110  ASP110     -0.2864
     90  CB        34.4530   22.0180  133.1700 C.3   110  ASP110      0.1436
     91  CG        33.9390   22.5930  134.4930 C.2   110  ASP110      0.3671
     92  OD1       34.5690   23.5860  134.9570 O.co2 110  ASP110     -0.2456
     93  OD2       32.9500   22.0420  135.0920 O.co2 110  ASP110     -0.2456
     94  N         30.3850   22.7860  134.9260 N.3   113  LEU113     -0.1245
     95  CA        30.1940   24.0920  134.3620 C.3   113  LEU113      0.1561
     96  C         29.0780   23.9250  133.3510 C.2   113  LEU113      0.2260
     97  O         28.0580   24.6270  133.4060 O.2   113  LEU113     -0.2867
     98  CB        31.5210   24.6350  133.7660 C.3   113  LEU113      0.0270
     99  CG        31.7750   26.0670  133.2800 C.3   113  LEU113      0.0019
    100  CD1       31.5630   26.0560  131.7910 C.3   113  LEU113      0.0001
    101  CD2       30.9150   27.1330  133.9630 C.3   113  LEU113      0.0001
    102  N         38.4970   15.9950  128.1200 N.3   140  ASP140     -0.1225
    103  CA        39.5870   16.8100  127.5630 C.3   140  ASP140      0.1805
    104  C         39.6050   16.5740  126.0570 C.2   140  ASP140      0.2597
    105  O         39.8010   15.4960  125.5750 O.2   140  ASP140     -0.2718
    106  CB        40.9400   16.4840  128.2530 C.3   140  ASP140      0.1424
    107  CG        42.1320   17.3920  127.7710 C.2   140  ASP140      0.3668
    108  OD1       42.9330   17.8850  128.6440 O.co2 140  ASP140     -0.2456
    109  OD2       42.2670   17.5830  126.5190 O.co2 140  ASP140     -0.2456
    110  N         39.3650   17.6230  125.3100 N.am  141  ALA141     -0.1979
    111  CA        39.1440   17.4880  123.8880 C.3   141  ALA141      0.1597
    112  C         40.3960   16.9880  123.2530 C.2   141  ALA141      0.2287
    113  O         40.4220   16.6980  122.0630 O.2   141  ALA141     -0.2864
    114  CB        38.7410   18.8220  123.2750 C.3   141  ALA141      0.0319
    115  N         36.4900   26.9600  120.6860 N.3   158  ASP158     -0.1225
    116  CA        35.9330   28.0750  121.4420 C.3   158  ASP158      0.1805
    117  C         36.5300   27.9500  122.7790 C.2   158  ASP158      0.2598
    118  O         35.8520   27.7100  123.7780 O.2   158  ASP158     -0.2718
    119  CB        34.3930   28.0280  121.5550 C.3   158  ASP158      0.1424
    120  CG        33.8240   29.1870  122.4010 C.2   158  ASP158      0.3668
    121  OD1       32.6710   29.0990  122.8900 O.co2 158  ASP158     -0.2456
    122  OD2       34.5400   30.1950  122.5880 O.co2 158  ASP158     -0.2456
    123  N         37.8290   28.0590  122.8040 N.am  159  LEU159     -0.1966
    124  CA        38.4880   27.6750  124.0230 C.3   159  LEU159      0.1728
    125  C         38.6480   28.8680  124.9080 C.2   159  LEU159      0.2616
    126  O         37.7000   29.5360  125.1880 O.2   159  LEU159     -0.2715
    127  CB        39.8020   26.9930  123.7010 C.3   159  LEU159      0.0311
    128  CG        39.6760   25.5010  123.7210 C.3   159  LEU159      0.0022
    129  CD1       40.9290   24.9590  123.0910 C.3   159  LEU159      0.0001
    130  CD2       39.5890   25.1230  125.1920 C.3   159  LEU159      0.0001
    131  N         39.8480   29.1340  125.3620 N.am  160  THR160     -0.1951
    132  CA        40.0770   30.2530  126.2270 C.3   160  THR160      0.1897
    133  C         41.5590   30.4830  126.3050 C.2   160  THR160      0.2313
    134  O         42.3070   29.5350  126.2900 O.2   160  THR160     -0.2863
    135  CB        39.5580   30.0260  127.6570 C.3   160  THR160      0.1794
    136  OG1       40.3540   30.8580  128.5190 O.3   160  THR160     -0.2208
    137  CG2       39.6580   28.5560  128.0800 C.3   160  THR160      0.0378
    138  N         46.9470   22.0160  132.1800 N.3   168  PRO168     -0.2102
    139  CA        46.8650   20.9580  131.0920 C.3   168  PRO168      0.1504
    140  C         46.2870   21.4180  129.7080 C.2   168  PRO168      0.2575
    141  O         46.2750   20.6140  128.7630 O.2   168  PRO168     -0.2718
    142  CB        46.0010   19.8130  131.7270 C.3   168  PRO168      0.0282
    143  CG        45.3640   20.4260  133.0070 C.3   168  PRO168      0.0208
    144  CD        46.2830   21.5830  133.4380 C.3   168  PRO168      0.0893
    145  N         45.8670   22.6990  129.6130 N.am  169  ALA169     -0.1980
    146  CA        45.1050   23.2720  128.4600 C.3   169  ALA169      0.1597
    147  C         45.9620   24.1800  127.5210 C.2   169  ALA169      0.2287
    148  O         45.5120   24.5680  126.4060 O.2   169  ALA169     -0.2864
    149  CB        43.8310   23.9910  128.9580 C.3   169  ALA169      0.0319
    150  N         46.3540   22.6680  124.3520 N.3   172  LEU172     -0.1245
    151  CA        45.3360   22.8320  123.3300 C.3   172  LEU172      0.1561
    152  C         45.7430   23.9570  122.4420 C.2   172  LEU172      0.2260
    153  O         45.0080   24.3800  121.5880 O.2   172  LEU172     -0.2867
    154  CB        43.9390   23.0200  123.9470 C.3   172  LEU172      0.0270
    155  CG        43.2550   21.6700  124.2200 C.3   172  LEU172      0.0019
    156  CD1       43.6840   21.0980  125.6040 C.3   172  LEU172      0.0001
    157  CD2       41.7630   21.6390  124.0770 C.3   172  LEU172      0.0001
@<TRIPOS>BOND
     1    41    39    1
     2    35    36    1
     3    39    36    1
     4    39    40    1
     5   115   116    1
     6    36    37    1
     7   116   119    1
     8   116   117    1
     9    38    37    2
    10   119   120    1
    11   153   152    2
    12    68    67    1
    13    37    42   am
    14   113   112    2
    15   120   122   ar
    16   120   121   ar
    17   152   151    1
    18    63    64    1
    19    67    64    1
    20    67    69    1
    21   117   123   am
    22   117   118    2
    23   123   124    1
    24   129   128    1
    25   112   111    1
    26   114   111    1
    27   151   154    1
    28   151   150    1
    29    42    43    1
    30    64    65    1
    31    45    44    2
    32   127   128    1
    33   127   124    1
    34   128   130    1
    35   111   110    1
    36   154   155    1
    37   124   125    1
    38   157   155    1
    39    66    65    2
    40   155   156    1
    41    44    43    1
    42    44    46   am
    43    65    70   am
    44    47    46    1
    45    47    48    1
    46   125   126    2
    47   125   131   am
    48    49    48    2
    49   110   104   am
    50   131   132    1
    51   105   104    2
    52    48    50   am
    53    70    71    1
    54    62    60   ar
    55   104   103    1
    56   132   133    1
    57   132   135    1
    58   134   133    2
    59   148   147    2
    60    56    57    2
    61    56    55    1
    62   109   107   ar
    63    74    71    1
    64    74    75    1
    65    71    72    1
    66    50    51    1
    67    60    61   ar
    68    60    59    1
    69    58    55    1
    70    58    59    1
    71    29    28    2
    72    77    75   ar
    73    55    54    1
    74   147   146    1
    75   103   102    1
    76   103   106    1
    77    54    52   am
    78   135   137    1
    79   135   136    1
    80    53    52    2
    81    52    51    1
    82   107   106    1
    83   107   108   ar
    84    75    76   ar
    85    72    78   am
    86    72    73    2
    87    28    27    1
    88    33    32    2
    89   146   149    1
    90   146   145    1
    91    78    79    1
    92   141   140    2
    93    31    32    1
    94    31    30    1
    95    32    34   am
    96    27    30    1
    97    27    26    1
    98   145   140   am
    99   140   139    1
   100    79    82    1
   101    79    80    1
   102    82    83    1
   103    82    84    1
   104    83    85    1
   105    81    80    2
   106    80    86   am
   107   139   142    1
   108   139   138    1
   109   142   143    1
   110    25    23    1
   111   100    99    1
   112    86    87    1
   113   138   144    1
   114    13    12    2
   115    89    88    2
   116    14    15    1
   117    14    11    1
   118    16    15    1
   119     8     7    2
   120    15    17    1
   121    10    11    1
   122    88    87    1
   123    87    90    1
   124   143   144    1
   125    23    22    1
   126    23    24    1
   127    90    91    1
   128    11    12    1
   129    99    98    1
   130    99   101    1
   131    22    19    1
   132    96    97    2
   133    96    95    1
   134     9     7   am
   135     7     6    1
   136    98    95    1
   137    18    19    1
   138    95    94    1
   139    91    92   ar
   140    91    93   ar
   141    21    20    2
   142    19    20    1
   143     6     5    1
   144     5     2    1
   145     1     2    1
   146     2     3    1
   147     3     4    2
