@<TRIPOS>MOLECULE
tmp/3ao0A00.pdb
 189 185 0 0 0
SMALL
GASTEIGER

@<TRIPOS>ATOM
      1  N         92.9520  -98.5300  -24.5740 N.3   193  ASN193     -0.1226
      2  CA        91.8960  -99.5380  -24.5390 C.3   193  ASN193      0.1770
      3  C         91.4500  -99.9470  -25.9450 C.2   193  ASN193      0.2439
      4  O         90.9300  -99.1230  -26.6970 O.2   193  ASN193     -0.2733
      5  CB        90.7050  -99.0390  -23.7260 C.3   193  ASN193      0.1168
      6  CG        91.1200  -98.4180  -22.4120 C.2   193  ASN193      0.2627
      7  OD1       91.5750  -97.2720  -22.3690 O.2   193  ASN193     -0.2716
      8  ND2       90.9810  -99.1740  -21.3300 N.am  193  ASN193     -0.0877
      9  N         91.6820 -101.2270  -26.3120 N.am  194  PRO194     -0.2718
     10  CA        91.3790 -101.7190  -27.6520 C.3   194  PRO194      0.1535
     11  C         89.9320 -102.2160  -27.7730 C.2   194  PRO194      0.2598
     12  O         89.3370 -102.6380  -26.7830 O.2   194  PRO194     -0.2715
     13  CB        92.3500 -102.8790  -27.8170 C.3   194  PRO194      0.0310
     14  CG        92.5170 -103.4250  -26.4360 C.3   194  PRO194      0.0237
     15  CD        92.3500 -102.2550  -25.4820 C.3   194  PRO194      0.0939
     16  N         89.3860 -102.1610  -28.9850 N.am  195  VAL195     -0.1964
     17  CA        88.0440 -102.6980  -29.2570 C.3   195  VAL195      0.1727
     18  C         88.0520 -104.2380  -29.2720 C.2   195  VAL195      0.2617
     19  O         87.1340 -104.8790  -28.7490 O.2   195  VAL195     -0.2715
     20  CB        87.4740 -102.1560  -30.6120 C.3   195  VAL195      0.0290
     21  CG1       86.0420 -102.6610  -30.8410 C.3   195  VAL195      0.0023
     22  CG2       87.5140 -100.6410  -30.6330 C.3   195  VAL195      0.0023
     23  N         89.1040 -104.8180  -29.8550 N.am  196  THR196     -0.1937
     24  CA        89.1940 -106.2800  -30.0090 C.3   196  THR196      0.2028
     25  C         90.2770 -106.8900  -29.1020 C.2   196  THR196      0.2642
     26  O         91.4510 -106.4990  -29.1630 O.2   196  THR196     -0.2714
     27  CB        89.4620 -106.6860  -31.4760 C.3   196  THR196      0.1808
     28  OG1       89.0060 -105.6510  -32.3540 O.3   196  THR196     -0.2208
     29  CG2       88.7410 -107.9740  -31.8080 C.3   196  THR196      0.0379
     30  N         89.8670 -107.8480  -28.2660 N.am  197  ASP197     -0.1971
     31  CA        90.8010 -108.6080  -27.4180 C.3   197  ASP197      0.1709
     32  C         91.4730 -109.7310  -28.2120 C.2   197  ASP197      0.2293
     33  O         91.0670 -110.8940  -28.1230 O.2   197  ASP197     -0.2864
     34  CB        90.0540 -109.2030  -26.2050 C.3   197  ASP197      0.1436
     35  CG        90.6030 -108.7090  -24.8770 C.2   197  ASP197      0.3671
     36  OD1       91.6160 -109.2580  -24.4150 O.co2 197  ASP197     -0.2456
     37  OD2       90.0070 -107.7760  -24.2910 O.co2 197  ASP197     -0.2456
     38  N         95.2610 -102.0400  -23.1530 N.3   225  LEU225     -0.1231
     39  CA        94.5470 -102.3180  -21.9170 C.3   225  LEU225      0.1693
     40  C         93.4380 -103.3440  -22.1570 C.2   225  LEU225      0.2592
     41  O         92.3250 -103.2160  -21.6340 O.2   225  LEU225     -0.2718
     42  CB        93.9730 -101.0240  -21.3240 C.3   225  LEU225      0.0284
     43  CG        94.9500 -100.1610  -20.5010 C.3   225  LEU225      0.0019
     44  CD1       95.8300  -99.2950  -21.4060 C.3   225  LEU225      0.0001
     45  CD2       94.2040  -99.3080  -19.5180 C.3   225  LEU225      0.0001
     46  N         93.7560 -104.3650  -22.9540 N.am  226  ALA226     -0.1966
     47  CA        92.9680 -105.5860  -23.0060 C.3   226  ALA226      0.1728
     48  C         93.1110 -106.3950  -21.7120 C.2   226  ALA226      0.2616
     49  O         93.8230 -105.9900  -20.7900 O.2   226  ALA226     -0.2715
     50  CB        93.3780 -106.4200  -24.1990 C.3   226  ALA226      0.0334
     51  N         92.4240 -107.5380  -21.6500 N.am  227  HIS227     -0.1973
     52  CA        92.6160 -108.4960  -20.5540 C.3   227  HIS227      0.1656
     53  C         94.0700 -108.9410  -20.4600 C.2   227  HIS227      0.2291
     54  O         94.7320 -109.1550  -21.4840 O.2   227  HIS227     -0.2864
     55  CB        91.7040 -109.7120  -20.7350 C.3   227  HIS227      0.0771
     56  CG        91.4250 -110.4530  -19.4630 C.ar  227  HIS227      0.0820
     57  ND1       92.1800 -111.5310  -19.0470 N.ar  227  HIS227     -0.2267
     58  CD2       90.4740 -110.2720  -18.5160 C.ar  227  HIS227      0.1154
     59  CE1       91.7040 -111.9810  -17.9000 C.ar  227  HIS227      0.1986
     60  NE2       90.6700 -111.2350  -17.5560 N.ar  227  HIS227     -0.2212
     61  N         98.7190 -104.4140  -18.0350 N.3   245  PHE245     -0.1227
     62  CA        97.5590 -103.8500  -17.3540 C.3   245  PHE245      0.1736
     63  C         96.6220 -104.9560  -16.8560 C.2   245  PHE245      0.2595
     64  O         96.4820 -105.9990  -17.4990 O.2   245  PHE245     -0.2718
     65  CB        96.8020 -102.8920  -18.2910 C.3   245  PHE245      0.0547
     66  CG        95.4490 -102.4800  -17.7760 C.ar  245  PHE245     -0.0202
     67  CD1       94.2840 -103.0740  -18.2740 C.ar  245  PHE245     -0.0042
     68  CD2       95.3310 -101.5040  -16.7920 C.ar  245  PHE245     -0.0042
     69  CE1       93.0330 -102.6950  -17.7960 C.ar  245  PHE245     -0.0003
     70  CE2       94.0830 -101.1260  -16.3130 C.ar  245  PHE245     -0.0003
     71  CZ        92.9340 -101.7210  -16.8180 C.ar  245  PHE245     -0.0000
     72  N         95.9730 -104.7120  -15.7120 N.am  246  GLN246     -0.1965
     73  CA        94.7360 -105.4230  -15.3520 C.3   246  GLN246      0.1733
     74  C         93.8290 -104.5520  -14.4630 C.2   246  GLN246      0.2617
     75  O         94.2840 -103.9670  -13.4870 O.2   246  GLN246     -0.2715
     76  CB        95.0670 -106.7560  -14.6430 C.3   246  GLN246      0.0408
     77  CG        93.8550 -107.6850  -14.4010 C.3   246  GLN246      0.0908
     78  CD        92.8920 -107.7400  -15.5910 C.2   246  GLN246      0.2608
     79  OE1       93.2730 -108.1150  -16.6980 O.2   246  GLN246     -0.2717
     80  NE2       91.6400 -107.3820  -15.3520 N.am  246  GLN246     -0.0878
     81  N         92.5460 -104.4680  -14.8280 N.am  247  SER247     -0.1950
     82  CA        91.4840 -104.0710  -13.8800 C.3   247  SER247      0.1924
     83  C         91.3700 -105.0650  -12.7280 C.2   247  SER247      0.2314
     84  O         91.2800 -106.2720  -12.9470 O.2   247  SER247     -0.2863
     85  CB        90.1370 -103.9610  -14.6020 C.3   247  SER247      0.2116
     86  OG        90.1310 -102.8810  -15.5140 O.3   247  SER247     -0.2180
     87  N         84.5970 -112.2690  -11.3460 N.3   257  GLU257     -0.1231
     88  CA        83.7970 -111.4480  -12.2930 C.3   257  GLU257      0.1699
     89  C         84.6380 -110.9460  -13.4550 C.2   257  GLU257      0.2592
     90  O         84.1720 -110.8950  -14.5940 O.2   257  GLU257     -0.2718
     91  CB        83.1580 -110.2610  -11.5680 C.3   257  GLU257      0.0402
     92  CG        81.8290 -110.5690  -10.9420 C.3   257  GLU257      0.1161
     93  CD        80.6720 -110.3710  -11.8940 C.2   257  GLU257      0.3649
     94  OE1       80.1910 -111.3700  -12.4510 O.co2 257  GLU257     -0.2457
     95  OE2       80.2350 -109.2090  -12.0790 O.co2 257  GLU257     -0.2457
     96  N         85.8830 -110.5780  -13.1600 N.am  258  PHE258     -0.1976
     97  CA        86.7600 -109.9620  -14.1480 C.3   258  PHE258      0.1639
     98  C         87.5210 -111.0370  -14.9480 C.2   258  PHE258      0.2290
     99  O         88.1750 -110.7350  -15.9530 O.2   258  PHE258     -0.2864
    100  CB        87.7560 -109.0060  -13.4610 C.3   258  PHE258      0.0560
    101  CG        87.1380 -107.6770  -13.0110 C.ar  258  PHE258     -0.0200
    102  CD1       85.7460 -107.4800  -13.0350 C.ar  258  PHE258     -0.0042
    103  CD2       87.9530 -106.6310  -12.5640 C.ar  258  PHE258     -0.0042
    104  CE1       85.1840 -106.2640  -12.6220 C.ar  258  PHE258     -0.0003
    105  CE2       87.3920 -105.4050  -12.1480 C.ar  258  PHE258     -0.0003
    106  CZ        86.0130 -105.2270  -12.1780 C.ar  258  PHE258     -0.0000
    107  N         82.6120 -101.1690   -8.1600 N.3   292  SER292     -0.1217
    108  CA        82.8820 -102.3450   -9.0000 C.3   292  SER292      0.1889
    109  C         82.5610 -103.6510   -8.2640 C.2   292  SER292      0.2288
    110  O         82.0480 -104.6010   -8.8620 O.2   292  SER292     -0.2866
    111  CB        84.3360 -102.3500   -9.4580 C.3   292  SER292      0.2089
    112  OG        85.2080 -102.6240   -8.3760 O.3   292  SER292     -0.2183
    113  N         78.7740 -103.8930   -7.9940 N.3   295  SER295     -0.1217
    114  CA        78.2640 -104.3330   -9.2990 C.3   295  SER295      0.1889
    115  C         78.4280 -105.8320   -9.4850 C.2   295  SER295      0.2288
    116  O         77.6670 -106.4630  -10.2210 O.2   295  SER295     -0.2866
    117  CB        78.9800 -103.5910  -10.4210 C.3   295  SER295      0.2089
    118  OG        78.6340 -104.1220  -11.6850 O.3   295  SER295     -0.2183
    119  N         89.3850  -94.9540  -11.4510 N.3   326  VAL326     -0.1245
    120  CA        88.6050  -94.2970  -12.4660 C.3   326  VAL326      0.1561
    121  C         87.2870  -93.8020  -11.8820 C.2   326  VAL326      0.2260
    122  O         86.3040  -94.5370  -11.8420 O.2   326  VAL326     -0.2867
    123  CB        88.3180  -95.2480  -13.6740 C.3   326  VAL326      0.0252
    124  CG1       88.1410  -94.4650  -14.9070 C.3   326  VAL326      0.0019
    125  CG2       89.4570  -96.2720  -13.8440 C.3   326  VAL326      0.0019
    126  N         83.5300  -93.4380  -13.4470 N.3   329  PHE329     -0.1227
    127  CA        83.5690  -94.1260  -14.7390 C.3   329  PHE329      0.1736
    128  C         82.2660  -94.8670  -15.0400 C.2   329  PHE329      0.2595
    129  O         81.9420  -95.1110  -16.1950 O.2   329  PHE329     -0.2718
    130  CB        84.7450  -95.0980  -14.7970 C.3   329  PHE329      0.0547
    131  CG        84.9240  -95.7630  -16.1480 C.ar  329  PHE329     -0.0202
    132  CD1       84.8770  -97.1510  -16.2680 C.ar  329  PHE329     -0.0042
    133  CD2       85.1270  -94.9960  -17.3030 C.ar  329  PHE329     -0.0042
    134  CE1       85.0350  -97.7710  -17.5180 C.ar  329  PHE329     -0.0003
    135  CE2       85.2800  -95.6100  -18.5510 C.ar  329  PHE329     -0.0003
    136  CZ        85.2410  -97.0000  -18.6520 C.ar  329  PHE329     -0.0000
    137  N         81.5350  -95.2360  -13.9920 N.am  330  ILE330     -0.1980
    138  CA        80.4150  -96.1710  -14.1340 C.3   330  ILE330      0.1595
    139  C         79.0630  -95.4400  -14.2220 C.2   330  ILE330      0.2287
    140  O         78.3580  -95.5430  -15.2310 O.2   330  ILE330     -0.2864
    141  CB        80.3790  -97.2120  -12.9830 C.3   330  ILE330      0.0276
    142  CG1       81.7200  -97.9600  -12.8950 C.3   330  ILE330      0.0022
    143  CG2       79.2360  -98.1960  -13.1970 C.3   330  ILE330      0.0022
    144  CD1       81.8870  -98.7930  -11.6190 C.3   330  ILE330      0.0001
    145  N         74.7240  -94.3650  -10.1380 N.3   333  GLU333     -0.1231
    146  CA        74.2890  -95.4540   -9.2770 C.3   333  GLU333      0.1699
    147  C         75.2130  -95.6210   -8.0690 C.2   333  GLU333      0.2592
    148  O         74.7690  -96.0070   -6.9880 O.2   333  GLU333     -0.2718
    149  CB        74.2400  -96.7520  -10.0770 C.3   333  GLU333      0.0402
    150  CG        74.2730  -96.5320  -11.5940 C.3   333  GLU333      0.1161
    151  CD        75.0950  -97.5540  -12.3220 C.2   333  GLU333      0.3649
    152  OE1       75.4850  -97.2860  -13.4810 O.co2 333  GLU333     -0.2457
    153  OE2       75.3470  -98.6270  -11.7530 O.co2 333  GLU333     -0.2457
    154  N         76.4970  -95.3310   -8.2550 N.am  334  TYR334     -0.1976
    155  CA        77.4880  -95.5040   -7.1950 C.3   334  TYR334      0.1639
    156  C         78.0280  -94.1750   -6.7030 C.2   334  TYR334      0.2290
    157  O         78.2560  -93.9950   -5.5020 O.2   334  TYR334     -0.2864
    158  CB        78.6270  -96.4130   -7.6630 C.3   334  TYR334      0.0560
    159  CG        78.1480  -97.7270   -8.2230 C.ar  334  TYR334     -0.0198
    160  CD1       78.4780  -98.1160   -9.5150 C.ar  334  TYR334     -0.0009
    161  CD2       77.3330  -98.5760   -7.4660 C.ar  334  TYR334     -0.0009
    162  CE1       78.0270  -99.3240  -10.0400 C.ar  334  TYR334      0.0417
    163  CE2       76.8770  -99.7800   -7.9800 C.ar  334  TYR334      0.0417
    164  CZ        77.2240 -100.1490   -9.2670 C.ar  334  TYR334      0.1957
    165  OH        76.7700 -101.3340   -9.7800 O.3   334  TYR334     -0.2866
    166  N         84.6240  -93.5400  -27.5950 N.3   401  MET401     -0.1230
    167  CA        84.7500  -94.9800  -27.7150 C.3   401  MET401      0.1702
    168  C         84.4390  -95.6760  -26.3730 C.2   401  MET401      0.2592
    169  O         83.7590  -96.7020  -26.3390 O.2   401  MET401     -0.2718
    170  CB        86.1590  -95.3500  -28.1990 C.3   401  MET401      0.0401
    171  CG        86.4470  -96.8160  -28.2020 C.3   401  MET401      0.0596
    172  SD        87.5150  -97.3000  -26.8510 S.3   401  MET401     -0.1393
    173  CE        87.7710  -99.0100  -27.2440 C.3   401  MET401      0.0692
    174  N         84.9460  -95.1020  -25.2770 N.am  402  LEU402     -0.1966
    175  CA        84.5540  -95.5340  -23.9220 C.3   402  LEU402      0.1728
    176  C         83.3510  -94.7480  -23.4060 C.2   402  LEU402      0.2616
    177  O         82.8170  -95.0460  -22.3270 O.2   402  LEU402     -0.2715
    178  CB        85.7320  -95.3860  -22.9430 C.3   402  LEU402      0.0311
    179  CG        86.8920  -96.3760  -23.0780 C.3   402  LEU402      0.0022
    180  CD1       87.9730  -96.0750  -22.0500 C.3   402  LEU402      0.0001
    181  CD2       86.4060  -97.7820  -22.9290 C.3   402  LEU402      0.0001
    182  N         82.9360  -93.7300  -24.1780 N.am  403  ASN403     -0.1972
    183  CA        81.6690  -93.0020  -23.9270 C.3   403  ASN403      0.1688
    184  C         81.6270  -92.3250  -22.5500 C.2   403  ASN403      0.2292
    185  O         80.7000  -92.5480  -21.7570 O.2   403  ASN403     -0.2864
    186  CB        80.4650  -93.9240  -24.1090 C.3   403  ASN403      0.1181
    187  CG        80.3030  -94.4020  -25.5400 C.2   403  ASN403      0.2629
    188  OD1       81.0420  -93.9880  -26.4340 O.2   403  ASN403     -0.2716
    189  ND2       79.3300  -95.2780  -25.7630 N.am  403  ASN403     -0.0877
@<TRIPOS>BOND
     1    28    27    1
     2    29    27    1
     3    27    24    1
     4    21    20    1
     5    22    20    1
     6    20    17    1
     7    24    23    1
     8    24    25    1
     9    23    18   am
    10    18    17    1
    11    18    19    2
    12    17    16    1
    13    26    25    2
    14    25    30   am
    15    16    11   am
    16    30    31    1
    17    32    33    2
    18    32    31    1
    19   171   170    1
    20   171   172    1
    21   170   167    1
    22    13    10    1
    23    13    14    1
    24    11    10    1
    25    11    12    2
    26   167   166    1
    27   167   168    1
    28    10     9    1
    29    31    34    1
    30   173   172    1
    31     4     3    2
    32    14    15    1
    33   188   187    2
    34   168   169    2
    35   168   174   am
    36     9     3   am
    37     9    15    1
    38    34    35    1
    39     3     2    1
    40   189   187   am
    41   187   186    1
    42   174   175    1
    43    35    36   ar
    44    35    37   ar
    45     1     2    1
    46     2     5    1
    47    50    47    1
    48   182   183    1
    49   182   176   am
    50   186   183    1
    51   183   184    1
    52   175   176    1
    53   175   178    1
    54     5     6    1
    55   176   177    2
    56    38    39    1
    57   179   178    1
    58   179   181    1
    59   179   180    1
    60    47    46    1
    61    47    48    1
    62    46    40   am
    63   184   185    2
    64     6     7    2
    65     6     8   am
    66    40    39    1
    67    40    41    2
    68    39    42    1
    69    48    51   am
    70    48    49    2
    71    51    52    1
    72    54    53    2
    73    44    43    1
    74    42    43    1
    75    55    52    1
    76    55    56    1
    77    52    53    1
    78    43    45    1
    79    56    57   ar
    80    56    58   ar
    81    57    59   ar
    82   136   135   ar
    83   136   134   ar
    84   135   133   ar
    85    58    60   ar
    86    65    66    1
    87    65    62    1
    88    67    69   ar
    89    67    66   ar
    90    61    62    1
    91    59    60   ar
    92    69    71   ar
    93    66    68   ar
    94   134   132   ar
    95    64    63    2
    96    62    63    1
    97   133   131   ar
    98    63    72   am
    99    71    70   ar
   100    68    70   ar
   101    79    78    2
   102   132   131   ar
   103   129   128    2
   104   131   130    1
   105    99    98    2
   106    72    73    1
   107    78    80   am
   108    78    77    1
   109    86    85    1
   110    73    76    1
   111    73    74    1
   112   140   139    2
   113   128   127    1
   114   128   137   am
   115    98    97    1
   116   124   123    1
   117    81    74   am
   118    81    82    1
   119   130   127    1
   120   127   126    1
   121    76    77    1
   122    85    82    1
   123    90    89    2
   124    74    75    2
   125   139   138    1
   126    97   100    1
   127    97    96    1
   128   138   137    1
   129   138   141    1
   130    82    83    1
   131   125   123    1
   132   123   120    1
   133   152   151   ar
   134   100   101    1
   135    89    96   am
   136    89    88    1
   137   143   141    1
   138   102   101   ar
   139   102   104   ar
   140   101   103   ar
   141   141   142    1
   142    84    83    2
   143   142   144    1
   144   104   106   ar
   145   103   105   ar
   146   120   121    1
   147   120   119    1
   148    94    93   ar
   149   151   153   ar
   150   151   150    1
   151    88    91    1
   152    88    87    1
   153   106   105   ar
   154    95    93   ar
   155    93    92    1
   156   121   122    2
   157   118   117    1
   158   150   149    1
   159    91    92    1
   160   117   114    1
   161   116   115    2
   162   145   146    1
   163   149   146    1
   164   162   160   ar
   165   162   164   ar
   166   165   164    1
   167   160   159   ar
   168   115   114    1
   169   111   108    1
   170   111   112    1
   171   114   113    1
   172   146   147    1
   173   164   163   ar
   174   108   109    1
   175   108   107    1
   176   110   109    2
   177   154   147   am
   178   154   155    1
   179   159   158    1
   180   159   161   ar
   181   147   148    2
   182   163   161   ar
   183   158   155    1
   184   155   156    1
   185   156   157    2
