@<TRIPOS>MOLECULE
tmp/3ao1A00.pdb
 89 87 0 0 0
SMALL
GASTEIGER

@<TRIPOS>ATOM
      1  N         15.0270   15.1350   13.7190 N.3    27  TYR27      -0.1241
      2  CA        14.9020   14.1460   12.6430 C.3    27  TYR27       0.1605
      3  C         13.4760   14.1040   12.0920 C.2    27  TYR27       0.2264
      4  O         12.5020   14.0980   12.8580 O.2    27  TYR27      -0.2867
      5  CB        15.3000   12.7700   13.1750 C.3    27  TYR27       0.0534
      6  CG        15.1370   11.5800   12.2460 C.ar   27  TYR27      -0.0201
      7  CD1       16.1920   11.1260   11.4530 C.ar   27  TYR27      -0.0009
      8  CD2       13.9420   10.8560   12.2240 C.ar   27  TYR27      -0.0009
      9  CE1       16.0540    9.9960   10.6460 C.ar   27  TYR27       0.0417
     10  CE2       13.7880    9.7530   11.4230 C.ar   27  TYR27       0.0417
     11  CZ        14.8420    9.3190   10.6430 C.ar   27  TYR27       0.1957
     12  OH        14.6590    8.1990    9.8690 O.3    27  TYR27      -0.2866
     13  N         10.1120    3.4470   14.4510 N.3    52  TRP52      -0.1241
     14  CA        10.7470    4.1200   15.5910 C.3    52  TRP52       0.1605
     15  C          9.8850    3.9190   16.8250 C.2    52  TRP52       0.2264
     16  O          8.7030    3.6220   16.7090 O.2    52  TRP52      -0.2867
     17  CB        10.8920    5.6160   15.3220 C.3    52  TRP52       0.0550
     18  CG        11.8260    5.9200   14.2140 C.ar   52  TRP52       0.0003
     19  CD1       11.5090    6.1560   12.9120 C.ar   52  TRP52       0.0946
     20  CD2       13.2510    6.0180   14.3070 C.ar   52  TRP52       0.0152
     21  NE1       12.6520    6.3910   12.1900 N.ar   52  TRP52      -0.2442
     22  CE2       13.7330    6.3120   13.0270 C.ar   52  TRP52       0.0810
     23  CE3       14.1660    5.8760   15.3590 C.ar   52  TRP52       0.0012
     24  CZ2       15.0950    6.4710   12.7610 C.ar   52  TRP52       0.0191
     25  CZ3       15.5120    6.0390   15.0950 C.ar   52  TRP52       0.0001
     26  CH2       15.9630    6.3330   13.8080 C.ar   52  TRP52       0.0015
     27  N         15.9680   13.4480    3.0440 N.3   115  PHE115     -0.1241
     28  CA        17.3420   12.9570    3.0220 C.3   115  PHE115      0.1605
     29  C         18.3380   14.0800    3.3850 C.2   115  PHE115      0.2264
     30  O         19.1690   13.9240    4.2810 O.2   115  PHE115     -0.2867
     31  CB        17.6400   12.3590    1.6350 C.3   115  PHE115      0.0534
     32  CG        19.0480   11.8600    1.4630 C.ar  115  PHE115     -0.0203
     33  CD1       19.3030   10.5000    1.3500 C.ar  115  PHE115     -0.0042
     34  CD2       20.1090   12.7450    1.3910 C.ar  115  PHE115     -0.0042
     35  CE1       20.5920   10.0320    1.1770 C.ar  115  PHE115     -0.0003
     36  CE2       21.4090   12.2850    1.2270 C.ar  115  PHE115     -0.0003
     37  CZ        21.6560   10.9350    1.1140 C.ar  115  PHE115     -0.0000
     38  N         17.9220   15.3000    7.1810 N.3   118  ASN118     -0.1225
     39  CA        18.3920   14.3590    8.2020 C.3   118  ASN118      0.1785
     40  C         19.9100   14.1150    8.1810 C.2   118  ASN118      0.2597
     41  O         20.4770   13.6530    9.1680 O.2   118  ASN118     -0.2718
     42  CB        17.6790   13.0200    8.0440 C.3   118  ASN118      0.1169
     43  CG        16.2150   13.0770    8.4710 C.2   118  ASN118      0.2627
     44  OD1       15.8140   13.9610    9.2260 O.2   118  ASN118     -0.2716
     45  ND2       15.4250   12.1050    8.0170 N.am  118  ASN118     -0.0877
     46  N         20.5520   14.4080    7.0480 N.am  119  HIS119     -0.1975
     47  CA        21.9990   14.2060    6.8900 C.3   119  HIS119      0.1656
     48  C         22.8120   15.4640    7.1730 C.2   119  HIS119      0.2291
     49  O         24.0440   15.4110    7.2660 O.2   119  HIS119     -0.2864
     50  CB        22.3410   13.7390    5.4650 C.3   119  HIS119      0.0771
     51  CG        22.0870   12.2860    5.2110 C.ar  119  HIS119      0.0820
     52  ND1       20.8830   11.8110    4.7380 N.ar  119  HIS119     -0.2267
     53  CD2       22.9070   11.2120    5.3030 C.ar  119  HIS119      0.1154
     54  CE1       20.9580   10.4980    4.5890 C.ar  119  HIS119      0.1986
     55  NE2       22.1800   10.1140    4.9160 N.ar  119  HIS119     -0.2212
     56  N         24.3110   15.5370   12.7380 N.3   129  SER129     -0.1217
     57  CA        23.0660   15.5740   11.9770 C.3   129  SER129      0.1889
     58  C         21.8830   15.1520   12.8470 C.2   129  SER129      0.2288
     59  O         22.0630   14.5600   13.9120 O.2   129  SER129     -0.2866
     60  CB        23.1600   14.6440   10.7670 C.3   129  SER129      0.2089
     61  OG        23.2160   13.2880   11.1790 O.3   129  SER129     -0.2183
     62  N         19.9840   12.7940   12.0910 N.3   131  GLY131     -0.1210
     63  CA        20.0770   11.3440   12.0440 C.3   131  GLY131      0.1956
     64  C         20.9710   10.7610   13.1220 C.2   131  GLY131      0.2611
     65  O         20.6260    9.7680   13.7830 O.2   131  GLY131     -0.2717
     66  N         22.1400   11.3670   13.2890 N.am  132  GLU132     -0.1979
     67  CA        23.0640   10.9660   14.3380 C.3   132  GLU132      0.1602
     68  C         22.4750   11.2120   15.7160 C.2   132  GLU132      0.2287
     69  O         22.5900   10.3720   16.6080 O.2   132  GLU132     -0.2864
     70  CB        24.4050   11.6880   14.1680 C.3   132  GLU132      0.0415
     71  CG        25.1660   11.1700   12.9700 C.3   132  GLU132      0.1163
     72  CD        26.3860   12.0220   12.6100 C.2   132  GLU132      0.3649
     73  OE1       26.3490   13.2520   12.7990 O.co2 132  GLU132     -0.2457
     74  OE2       27.3750   11.4430   12.1190 O.co2 132  GLU132     -0.2457
     75  N         19.2160   11.3910   16.6540 N.3   134  ILE134     -0.1231
     76  CA        18.1190   10.5220   17.0640 C.3   134  ILE134      0.1692
     77  C         18.6030    9.1370   17.5230 C.2   134  ILE134      0.2591
     78  O         18.1300    8.6340   18.5460 O.2   134  ILE134     -0.2718
     79  CB        16.9810   10.4020   16.0020 C.3   134  ILE134      0.0266
     80  CG1       15.7780    9.6500   16.6140 C.3   134  ILE134      0.0019
     81  CG2       17.5030    9.7210   14.7540 C.3   134  ILE134      0.0020
     82  CD1       14.5460    9.5850   15.6990 C.3   134  ILE134      0.0001
     83  N         19.5600    8.5300   16.8170 N.am  135  VAL135     -0.1980
     84  CA        20.0430    7.2200   17.2570 C.3   135  VAL135      0.1595
     85  C         20.7920    7.3070   18.5810 C.2   135  VAL135      0.2287
     86  O         20.6750    6.4150   19.4080 O.2   135  VAL135     -0.2864
     87  CB        20.9280    6.4850   16.2230 C.3   135  VAL135      0.0276
     88  CG1       20.1410    6.2350   14.9320 C.3   135  VAL135      0.0022
     89  CG2       22.2150    7.2680   15.9870 C.3   135  VAL135      0.0022
@<TRIPOS>BOND
     1    37    35   ar
     2    37    36   ar
     3    35    33   ar
     4    36    34   ar
     5    33    32   ar
     6    34    32   ar
     7    32    31    1
     8    31    28    1
     9    28    27    1
    10    28    29    1
    11    29    30    2
    12    54    52   ar
    13    54    55   ar
    14    52    51   ar
    15    55    53   ar
    16    51    53   ar
    17    51    50    1
    18    50    47    1
    19    47    46    1
    20    47    48    1
    21    46    40   am
    22    48    49    2
    23    38    39    1
    24    45    43   am
    25    42    39    1
    26    42    43    1
    27    40    39    1
    28    40    41    2
    29    43    44    2
    30    12    11    1
    31    11     9   ar
    32    11    10   ar
    33     9     7   ar
    34    60    61    1
    35    60    57    1
    36    10     8   ar
    37     7     6   ar
    38    57    56    1
    39    57    58    1
    40    63    62    1
    41    63    64    1
    42     3     2    1
    43     3     4    2
    44    74    72   ar
    45    21    19   ar
    46    21    22   ar
    47     8     6   ar
    48     6     5    1
    49    72    73   ar
    50    72    71    1
    51     2     5    1
    52     2     1    1
    53    24    22   ar
    54    24    26   ar
    55    58    59    2
    56    19    18   ar
    57    71    70    1
    58    22    20   ar
    59    64    66   am
    60    64    65    2
    61    66    67    1
    62    26    25   ar
    63    70    67    1
    64    18    20   ar
    65    18    17    1
    66    20    23   ar
    67    67    68    1
    68    13    14    1
    69    81    79    1
    70    88    87    1
    71    25    23   ar
    72    17    14    1
    73    14    15    1
    74    82    80    1
    75    68    69    2
    76    89    87    1
    77    79    80    1
    78    79    76    1
    79    87    84    1
    80    75    76    1
    81    16    15    2
    82    83    84    1
    83    83    77   am
    84    76    77    1
    85    84    85    1
    86    77    78    2
    87    85    86    2
