@<TRIPOS>MOLECULE
tmp/3ao4A00.pdb
 100 97 0 0 0
SMALL
GASTEIGER

@<TRIPOS>ATOM
      1  N          2.5060   15.9090    2.5780 N.3    27  TYR27      -0.1241
      2  CA         1.3330   16.1770    1.7590 C.3    27  TYR27       0.1605
      3  C          0.4810   17.3110    2.3450 C.2    27  TYR27       0.2264
      4  O          0.2760   17.3830    3.5510 O.2    27  TYR27      -0.2867
      5  CB         0.5050   14.8970    1.6160 C.3    27  TYR27       0.0534
      6  CG        -0.8720   14.9880    1.0220 C.ar   27  TYR27      -0.0201
      7  CD1       -1.9960   15.2550    1.8400 C.ar   27  TYR27      -0.0009
      8  CD2       -1.0970   14.6610   -0.3450 C.ar   27  TYR27      -0.0009
      9  CE1       -3.2620   15.2620    1.3280 C.ar   27  TYR27       0.0417
     10  CE2       -2.3890   14.6640   -0.8670 C.ar   27  TYR27       0.0417
     11  CZ        -3.4580   15.0140   -0.0370 C.ar   27  TYR27       0.1957
     12  OH        -4.7290   14.9370   -0.5260 O.3    27  TYR27      -0.2866
     13  N         -9.1630   11.8540    5.1840 N.3    52  TRP52      -0.1241
     14  CA        -7.8980   11.1660    5.6160 C.3    52  TRP52       0.1605
     15  C         -8.1050   10.7580    7.0800 C.2    52  TRP52       0.2264
     16  O         -8.9680   11.3160    7.7400 O.2    52  TRP52      -0.2867
     17  CB        -6.6420   12.0450    5.5180 C.3    52  TRP52       0.0550
     18  CG        -6.2450   12.4630    4.1120 C.ar   52  TRP52       0.0003
     19  CD1       -6.5780   13.6660    3.4750 C.ar   52  TRP52       0.0946
     20  CD2       -5.6010   11.6540    3.1400 C.ar   52  TRP52       0.0152
     21  NE1       -6.1110   13.6290    2.1690 N.ar   52  TRP52      -0.2442
     22  CE2       -5.5540   12.3920    1.9310 C.ar   52  TRP52       0.0810
     23  CE3       -5.1020   10.3390    3.1510 C.ar   52  TRP52       0.0012
     24  CZ2       -4.9770   11.8790    0.7670 C.ar   52  TRP52       0.0191
     25  CZ3       -4.5270    9.8180    1.9800 C.ar   52  TRP52       0.0001
     26  CH2       -4.4570   10.6000    0.8130 C.ar   52  TRP52       0.0015
     27  N         -1.9060   21.4760   -5.7830 N.3   113  PHE113     -0.1241
     28  CA        -1.7210   20.4820   -6.8550 C.3   113  PHE113      0.1605
     29  C         -0.2470   20.2810   -7.1570 C.2   113  PHE113      0.2264
     30  O          0.2760   19.1530   -7.1030 O.2   113  PHE113     -0.2867
     31  CB        -2.4940   20.9270   -8.1310 C.3   113  PHE113      0.0534
     32  CG        -2.3630   19.9720   -9.2720 C.ar  113  PHE113     -0.0203
     33  CD1       -1.1460   19.8710   -9.9530 C.ar  113  PHE113     -0.0042
     34  CD2       -3.4390   19.1580   -9.6660 C.ar  113  PHE113     -0.0042
     35  CE1       -1.0150   18.9630  -11.0170 C.ar  113  PHE113     -0.0003
     36  CE2       -3.2640   18.2200  -10.7020 C.ar  113  PHE113     -0.0003
     37  CZ        -2.0570   18.1890  -11.3840 C.ar  113  PHE113     -0.0000
     38  N          1.7330   18.6650   -4.0200 N.3   116  ASN116     -0.1225
     39  CA         1.4540   17.2820   -3.8170 C.3   116  ASN116      0.1785
     40  C          1.8830   16.3620   -4.9860 C.2   116  ASN116      0.2597
     41  O          2.0760   15.1790   -4.7660 O.2   116  ASN116     -0.2718
     42  CB        -0.0200   17.0920   -3.5140 C.3   116  ASN116      0.1169
     43  CG        -0.4150   17.6890   -2.1760 C.2   116  ASN116      0.2627
     44  OD1        0.4350   17.8870   -1.2870 O.2   116  ASN116     -0.2716
     45  ND2       -1.6970   17.9910   -2.0280 N.am  116  ASN116     -0.0877
     46  N          2.0030   16.8930   -6.1940 N.am  117  HIS117     -0.1975
     47  CA         2.3930   16.0670   -7.3720 C.3   117  HIS117      0.1656
     48  C          3.8750   16.1620   -7.6750 C.2   117  HIS117      0.2291
     49  O          4.3910   15.3150   -8.3870 O.2   117  HIS117     -0.2864
     50  CB         1.7330   16.5640   -8.6770 C.3   117  HIS117      0.0771
     51  CG         0.3490   16.0660   -8.8540 C.ar  117  HIS117      0.0820
     52  ND1       -0.7430   16.7330   -8.3370 N.ar  117  HIS117     -0.2267
     53  CD2       -0.1300   14.9580   -9.4700 C.ar  117  HIS117      0.1154
     54  CE1       -1.8380   16.0690   -8.6540 C.ar  117  HIS117      0.1986
     55  NE2       -1.4990   14.9920   -9.3380 N.ar  117  HIS117     -0.2212
     56  N          7.5240   15.6230   -8.1410 N.3   119  ARG119     -0.1245
     57  CA         8.4880   14.5490   -7.8420 C.3   119  ARG119      0.1563
     58  C          9.8730   15.1630   -7.8920 C.2   119  ARG119      0.2260
     59  O         10.3300   15.5710   -8.9840 O.2   119  ARG119     -0.2867
     60  CB         8.4130   13.4230   -8.8630 C.3   119  ARG119      0.0307
     61  CG         7.1270   12.6820   -8.8810 C.3   119  ARG119      0.0489
     62  CD         6.9090   12.0430  -10.2370 C.3   119  ARG119      0.2205
     63  NE         6.2180   10.7550  -10.1490 N.pl3 119  ARG119     -0.0865
     64  CZ         6.6720    9.6780   -9.4900 C.cat 119  ARG119      0.5346
     65  NH1        7.8060    9.7150   -8.7870 N.pl3 119  ARG119      0.1354
     66  NH2        5.9690    8.5500   -9.5070 N.pl3 119  ARG119      0.1354
     67  N          6.3390   11.5660   -4.9520 N.3   127  SER127     -0.1217
     68  CA         5.6350   12.8320   -4.6350 C.3   127  SER127      0.1889
     69  C          5.1050   12.7570   -3.2080 C.2   127  SER127      0.2288
     70  O          4.9850   11.6410   -2.6760 O.2   127  SER127     -0.2866
     71  CB         4.4640   13.0840   -5.6300 C.3   127  SER127      0.2089
     72  OG         3.5140   12.0300   -5.5370 O.3   127  SER127     -0.2183
     73  N          2.0870   13.1480   -2.4630 N.3   129  GLY129     -0.1210
     74  CA         0.8680   12.3550   -2.6830 C.3   129  GLY129      0.1956
     75  C          1.1390   10.8680   -2.7110 C.2   129  GLY129      0.2611
     76  O          0.4030   10.0750   -2.1490 O.2   129  GLY129     -0.2717
     77  N          2.2100   10.4530   -3.3760 N.am  130  GLU130     -0.1979
     78  CA         2.5120    9.0200   -3.3260 C.3   130  GLU130      0.1602
     79  C          2.9200    8.6040   -1.9160 C.2   130  GLU130      0.2287
     80  O          2.5330    7.5070   -1.4680 O.2   130  GLU130     -0.2864
     81  CB         3.6210    8.6360   -4.3060 C.3   130  GLU130      0.0415
     82  CG         3.2000    8.7750   -5.7000 C.3   130  GLU130      0.1163
     83  CD         4.4080    8.6620   -6.6160 C.2   130  GLU130      0.3649
     84  OE1        4.9480    9.7320   -6.9680 O.co2 130  GLU130     -0.2457
     85  OE2        4.8170    7.5030   -6.9040 O.co2 130  GLU130     -0.2457
     86  N          2.0010   10.0020    1.1120 N.3   132  ILE132     -0.1231
     87  CA         0.9050    9.8050    2.0880 C.3   132  ILE132      0.1692
     88  C          0.1790    8.4810    1.8960 C.2   132  ILE132      0.2591
     89  O         -0.2310    7.7860    2.8880 O.2   132  ILE132     -0.2718
     90  CB        -0.0770   11.0090    2.1450 C.3   132  ILE132      0.0266
     91  CG1       -1.0210   10.8910    3.3860 C.3   132  ILE132      0.0019
     92  CG2       -0.7320   11.2310    0.7460 C.3   132  ILE132      0.0020
     93  CD1       -1.8650   12.2300    3.7590 C.3   132  ILE132      0.0001
     94  N         -0.0340    8.1140    0.6380 N.am  133  VAL133     -0.1980
     95  CA        -0.8390    6.9630    0.3620 C.3   133  VAL133      0.1595
     96  C         -0.0530    5.7170    0.8060 C.2   133  VAL133      0.2287
     97  O         -0.6250    4.8560    1.4560 O.2   133  VAL133     -0.2864
     98  CB        -1.1720    6.9190   -1.1220 C.3   133  VAL133      0.0276
     99  CG1       -1.4700    5.5220   -1.5720 C.3   133  VAL133      0.0022
    100  CG2       -2.3150    7.9800   -1.4620 C.3   133  VAL133      0.0022
@<TRIPOS>BOND
     1    37    35   ar
     2    37    36   ar
     3    35    33   ar
     4    36    34   ar
     5    62    63    1
     6    62    61    1
     7    63    64    2
     8    33    32   ar
     9    34    32   ar
    10    66    64    1
    11    64    65    1
    12    53    55   ar
    13    53    51   ar
    14    55    54   ar
    15    32    31    1
    16    59    58    2
    17    61    60    1
    18    60    57    1
    19    51    50    1
    20    51    52   ar
    21    50    47    1
    22    54    52   ar
    23    49    48    2
    24    56    57    1
    25    31    28    1
    26    58    57    1
    27    48    47    1
    28    47    46    1
    29    29    30    2
    30    29    28    1
    31    84    83   ar
    32    85    83   ar
    33    28    27    1
    34    83    82    1
    35    46    40   am
    36    82    81    1
    37    71    72    1
    38    71    68    1
    39    40    41    2
    40    40    39    1
    41    67    68    1
    42    68    69    1
    43    81    78    1
    44    38    39    1
    45    39    42    1
    46    42    43    1
    47    77    78    1
    48    77    75   am
    49    78    79    1
    50    69    70    2
    51    75    74    1
    52    75    76    2
    53    74    73    1
    54    43    45   am
    55    43    44    2
    56    79    80    2
    57    99    98    1
    58   100    98    1
    59    98    95    1
    60    10     8   ar
    61    10    11   ar
    62    12    11    1
    63     8     6   ar
    64    11     9   ar
    65    95    94    1
    66    95    96    1
    67    94    88   am
    68    92    90    1
    69    24    26   ar
    70    24    22   ar
    71    96    97    2
    72    26    25   ar
    73     6     5    1
    74     6     7   ar
    75    86    87    1
    76     9     7   ar
    77     5     2    1
    78     2     3    1
    79     2     1    1
    80    88    87    1
    81    88    89    2
    82    22    21   ar
    83    22    20   ar
    84    25    23   ar
    85    87    90    1
    86    90    91    1
    87    21    19   ar
    88     3     4    2
    89    20    23   ar
    90    20    18   ar
    91    91    93    1
    92    19    18   ar
    93    18    17    1
    94    13    14    1
    95    17    14    1
    96    14    15    1
    97    15    16    2
