@<TRIPOS>MOLECULE
tmp/3ao5B02.pdb
 89 86 0 0 0
SMALL
GASTEIGER

@<TRIPOS>ATOM
      1  N         11.3410  -24.3880   -2.2130 N.3    27  TYR27      -0.1241
      2  CA        10.4810  -23.4210   -1.4840 C.3    27  TYR27       0.1605
      3  C          9.1220  -23.2390   -2.1700 C.2    27  TYR27       0.2264
      4  O          9.0460  -23.2310   -3.3910 O.2    27  TYR27      -0.2867
      5  CB        11.2140  -22.0840   -1.4070 C.3    27  TYR27       0.0534
      6  CG        10.4840  -20.8800   -0.8260 C.ar   27  TYR27      -0.0201
      7  CD1        9.7050  -20.0560   -1.6360 C.ar   27  TYR27      -0.0009
      8  CD2       10.6350  -20.5200    0.5040 C.ar   27  TYR27      -0.0009
      9  CE1        9.0730  -18.9260   -1.1320 C.ar   27  TYR27       0.0417
     10  CE2        9.9870  -19.3660    1.0230 C.ar   27  TYR27       0.0417
     11  CZ         9.2090  -18.5820    0.1870 C.ar   27  TYR27       0.1957
     12  OH         8.5580  -17.4350    0.6660 O.3    27  TYR27      -0.2866
     13  N          8.8580  -12.4830   -5.1190 N.3    52  TRP52      -0.1241
     14  CA        10.1000  -13.1120   -5.5620 C.3    52  TRP52       0.1605
     15  C         10.3690  -12.7370   -7.0200 C.2    52  TRP52       0.2264
     16  O          9.4520  -12.3440   -7.7390 O.2    52  TRP52      -0.2867
     17  CB        10.0060  -14.6340   -5.3880 C.3    52  TRP52       0.0550
     18  CG         9.8360  -15.0480   -3.9820 C.ar   52  TRP52       0.0003
     19  CD1        8.6620  -15.3320   -3.3490 C.ar   52  TRP52       0.0946
     20  CD2       10.8740  -15.2030   -3.0030 C.ar   52  TRP52       0.0152
     21  NE1        8.9090  -15.6600   -2.0300 N.ar   52  TRP52      -0.2442
     22  CE2       10.2580  -15.5900   -1.7970 C.ar   52  TRP52       0.0810
     23  CE3       12.2640  -15.0550   -3.0310 C.ar   52  TRP52       0.0012
     24  CZ2       10.9880  -15.8360   -0.6300 C.ar   52  TRP52       0.0191
     25  CZ3       12.9860  -15.2920   -1.8720 C.ar   52  TRP52       0.0001
     26  CH2       12.3530  -15.6850   -0.6920 C.ar   52  TRP52       0.0015
     27  N          8.5210  -24.9880    4.3690 N.3   116  ASN116     -0.1225
     28  CA         9.6180  -24.0610    4.0960 C.3   116  ASN116      0.1785
     29  C         10.6440  -23.9550    5.2210 C.2   116  ASN116      0.2597
     30  O         11.7960  -23.5870    4.9740 O.2   116  ASN116     -0.2718
     31  CB         9.0870  -22.6650    3.7280 C.3   116  ASN116      0.1169
     32  CG         8.4240  -22.6270    2.3580 C.2   116  ASN116      0.2627
     33  OD1        8.7420  -23.4300    1.4780 O.2   116  ASN116     -0.2716
     34  ND2        7.5250  -21.6580    2.1580 N.am  116  ASN116     -0.0877
     35  N         10.2300  -24.2770    6.4470 N.am  117  HIS117     -0.1975
     36  CA        11.1360  -24.2340    7.6010 C.3   117  HIS117      0.1656
     37  C         11.8980  -25.5330    7.9140 C.2   117  HIS117      0.2291
     38  O         12.9060  -25.4960    8.6200 O.2   117  HIS117     -0.2864
     39  CB        10.3810  -23.8330    8.8630 C.3   117  HIS117      0.0771
     40  CG        10.0530  -22.3800    8.9310 C.ar  117  HIS117      0.0820
     41  ND1        9.0210  -21.8230    8.2100 N.ar  117  HIS117     -0.2267
     42  CD2       10.6250  -21.3650    9.6200 C.ar  117  HIS117      0.1154
     43  CE1        8.9580  -20.5280    8.4680 C.ar  117  HIS117      0.1986
     44  NE2        9.9240  -20.2240    9.3190 N.ar  117  HIS117     -0.2212
     45  N         14.2610  -28.6550    8.2370 N.3   119  ARG119     -0.1245
     46  CA        15.6850  -28.8250    7.9720 C.3   119  ARG119      0.1563
     47  C         15.9410  -30.0490    7.0990 C.2   119  ARG119      0.2260
     48  O         15.5120  -31.1560    7.4230 O.2   119  ARG119     -0.2867
     49  CB        16.4640  -28.9430    9.2840 C.3   119  ARG119      0.0307
     50  CG        16.5100  -27.6590   10.0960 C.3   119  ARG119      0.0489
     51  CD        17.4210  -26.6290    9.4480 C.3   119  ARG119      0.2205
     52  NE        17.2050  -25.2910    9.9910 N.pl3 119  ARG119     -0.0865
     53  CZ        18.0160  -24.2590    9.7780 C.cat 119  ARG119      0.5346
     54  NH1       19.1010  -24.4090    9.0310 N.pl3 119  ARG119      0.1354
     55  NH2       17.7410  -23.0770   10.3110 N.pl3 119  ARG119      0.1354
     56  N         16.9760  -25.4000    5.1980 N.3   127  SER127     -0.1217
     57  CA        15.5660  -25.4090    4.8310 C.3   127  SER127      0.1889
     58  C         15.4150  -24.8220    3.4350 C.2   127  SER127      0.2288
     59  O         16.3090  -24.1460    2.9370 O.2   127  SER127     -0.2866
     60  CB        14.7390  -24.5660    5.8030 C.3   127  SER127      0.2089
     61  OG        15.0970  -23.1950    5.7170 O.3   127  SER127     -0.2183
     62  N         13.6290  -22.4250    2.7810 N.3   129  GLY129     -0.1210
     63  CA        13.6230  -20.9860    2.9500 C.3   129  GLY129      0.1956
     64  C         15.0530  -20.5180    2.8060 C.2   129  GLY129      0.2611
     65  O         15.3590  -19.5840    2.0710 O.2   129  GLY129     -0.2717
     66  N         15.9480  -21.1970    3.5080 N.am  130  GLU130     -0.1979
     67  CA        17.3530  -20.8310    3.4640 C.3   130  GLU130      0.1602
     68  C         17.9050  -20.9860    2.0440 C.2   130  GLU130      0.2287
     69  O         18.6410  -20.1160    1.5610 O.2   130  GLU130     -0.2864
     70  CB        18.1590  -21.6780    4.4560 C.3   130  GLU130      0.0415
     71  CG        17.9420  -21.2870    5.9000 C.3   130  GLU130      0.1163
     72  CD        18.3390  -22.3760    6.8630 C.2   130  GLU130      0.3649
     73  OE1       17.6640  -23.4240    6.8700 O.co2 130  GLU130     -0.2457
     74  OE2       19.3330  -22.1990    7.5970 O.co2 130  GLU130     -0.2457
     75  N         16.4030  -20.8300   -0.8930 N.3   132  ILE132     -0.1231
     76  CA        15.9570  -19.8420   -1.8940 C.3   132  ILE132      0.1692
     77  C         16.6930  -18.5040   -1.7380 C.2   132  ILE132      0.2591
     78  O         17.2040  -17.9500   -2.7130 O.2   132  ILE132     -0.2718
     79  CB        14.4060  -19.6480   -1.9520 C.3   132  ILE132      0.0266
     80  CG1       14.0220  -18.7780   -3.1640 C.3   132  ILE132      0.0019
     81  CG2       13.8760  -19.0280   -0.6640 C.3   132  ILE132      0.0020
     82  CD1       12.5330  -18.6400   -3.4120 C.3   132  ILE132      0.0001
     83  N         16.7860  -17.9880   -0.5160 N.am  133  VAL133     -0.1980
     84  CA        17.5010  -16.7240   -0.3460 C.3   133  VAL133      0.1595
     85  C         18.9750  -16.8650   -0.7360 C.2   133  VAL133      0.2287
     86  O         19.5780  -15.9290   -1.2640 O.2   133  VAL133     -0.2864
     87  CB        17.4110  -16.1430    1.0760 C.3   133  VAL133      0.0276
     88  CG1       15.9740  -15.9310    1.4640 C.3   133  VAL133      0.0022
     89  CG2       18.1380  -17.0380    2.0780 C.3   133  VAL133      0.0022
@<TRIPOS>BOND
     1    16    15    2
     2    15    14    1
     3    14    17    1
     4    14    13    1
     5    17    18    1
     6    18    19   ar
     7    18    20   ar
     8    82    80    1
     9     4     3    2
    10    19    21   ar
    11    80    79    1
    12    23    20   ar
    13    23    25   ar
    14    20    22   ar
    15    78    77    2
    16     1     2    1
    17     3     2    1
    18    21    22   ar
    19    79    76    1
    20    79    81    1
    21    76    77    1
    22    76    75    1
    23    25    26   ar
    24    22    24   ar
    25    77    83   am
    26     7     9   ar
    27     7     6   ar
    28     2     5    1
    29     5     6    1
    30    86    85    2
    31     9    11   ar
    32     6     8   ar
    33    85    84    1
    34    26    24   ar
    35    83    84    1
    36    84    87    1
    37    11    12    1
    38    11    10   ar
    39     8    10   ar
    40    87    88    1
    41    87    89    1
    42    33    32    2
    43    69    68    2
    44    68    67    1
    45    65    64    2
    46    34    32   am
    47    32    31    1
    48    62    63    1
    49    64    63    1
    50    64    66   am
    51    59    58    2
    52    58    57    1
    53    67    66    1
    54    67    70    1
    55    31    28    1
    56    28    27    1
    57    28    29    1
    58    70    71    1
    59    57    56    1
    60    57    60    1
    61    30    29    2
    62    29    35   am
    63    61    60    1
    64    71    72    1
    65    35    36    1
    66    72    73   ar
    67    72    74   ar
    68    47    48    2
    69    47    46    1
    70    36    37    1
    71    36    39    1
    72    37    38    2
    73    46    45    1
    74    46    49    1
    75    41    43   ar
    76    41    40   ar
    77    43    44   ar
    78    39    40    1
    79    40    42   ar
    80    54    53    1
    81    49    50    1
    82    44    42   ar
    83    51    52    1
    84    51    50    1
    85    53    52    2
    86    53    55    1
