@<TRIPOS>MOLECULE
tmp/3aoeE00.pdb
 90 88 0 0 0
SMALL
GASTEIGER

@<TRIPOS>ATOM
      1  N         63.7690    9.2990   40.0480 N.3    36  TYR36      -0.1241
      2  CA        63.6560   10.1160   38.8390 C.3    36  TYR36       0.1605
      3  C         64.8410   11.0460   38.7570 C.2    36  TYR36       0.2264
      4  O         65.3950   11.2420   37.6840 O.2    36  TYR36      -0.2867
      5  CB        62.3710   10.9250   38.8210 C.3    36  TYR36       0.0534
      6  CG        61.1770   10.2130   38.2480 C.ar   36  TYR36      -0.0201
      7  CD1       60.7960   10.3920   36.9220 C.ar   36  TYR36      -0.0009
      8  CD2       60.4040    9.3900   39.0370 C.ar   36  TYR36      -0.0009
      9  CE1       59.6700    9.7340   36.4010 C.ar   36  TYR36       0.0417
     10  CE2       59.2990    8.7340   38.5340 C.ar   36  TYR36       0.0417
     11  CZ        58.9260    8.9060   37.2240 C.ar   36  TYR36       0.1957
     12  OH        57.8090    8.2380   36.7640 O.3    36  TYR36      -0.2866
     13  N         65.7800   10.9790   32.1280 N.3    41  LYS41      -0.1245
     14  CA        64.7020   10.5160   31.2710 C.3    41  LYS41       0.1561
     15  C         65.1880    9.9270   29.9330 C.2    41  LYS41       0.2260
     16  O         64.7300    8.8600   29.5030 O.2    41  LYS41      -0.2867
     17  CB        63.7440   11.6770   31.0160 C.3    41  LYS41       0.0271
     18  CG        62.4660   11.2760   30.3560 C.3    41  LYS41       0.0035
     19  CD        61.8350   12.4810   29.6670 C.3    41  LYS41       0.0206
     20  CE        60.3350   12.3460   29.4690 C.3    41  LYS41       0.1093
     21  NZ        59.9110   10.9260   29.2470 N.3    41  LYS41      -0.1314
     22  N         64.9610   15.5720   33.5750 N.3    68  ASP68      -0.1225
     23  CA        63.7700   15.5050   34.4050 C.3    68  ASP68       0.1805
     24  C         62.8390   16.6520   34.0610 C.2    68  ASP68       0.2598
     25  O         63.2660   17.8190   34.0500 O.2    68  ASP68      -0.2718
     26  CB        64.1300   15.5840   35.8960 C.3    68  ASP68       0.1424
     27  CG        62.9190   15.3620   36.8120 C.2    68  ASP68       0.3668
     28  OD1       63.0580   14.6300   37.8010 O.co2  68  ASP68      -0.2456
     29  OD2       61.8170   15.9000   36.5610 O.co2  68  ASP68      -0.2456
     30  N         61.5710   16.3400   33.8090 N.am   69  ILE69      -0.1966
     31  CA        60.6420   17.3880   33.3900 C.3    69  ILE69       0.1727
     32  C         59.4140   17.5210   34.2880 C.2    69  ILE69       0.2616
     33  O         58.3620   17.9940   33.8380 O.2    69  ILE69      -0.2715
     34  CB        60.2070   17.2500   31.8850 C.3    69  ILE69       0.0290
     35  CG1       59.8440   15.8050   31.5020 C.3    69  ILE69       0.0022
     36  CG2       61.2960   17.7120   30.9630 C.3    69  ILE69       0.0023
     37  CD1       58.4080   15.4470   31.6840 C.3    69  ILE69       0.0001
     38  N         59.5310   17.1050   35.5500 N.am   70  ALA70      -0.1977
     39  CA        58.4110   17.2400   36.4790 C.3    70  ALA70       0.1597
     40  C         57.8100   18.6510   36.4520 C.2    70  ALA70       0.2287
     41  O         56.5870   18.8010   36.4340 O.2    70  ALA70      -0.2864
     42  CB        58.8340   16.8780   37.9160 C.3    70  ALA70       0.0319
     43  N         56.8970   16.0230   41.5390 N.3   410  THR410     -0.1218
     44  CA        56.9610   14.6030   41.2230 C.3   410  THR410      0.1862
     45  C         55.8320   13.7960   41.8870 C.2   410  THR410      0.2287
     46  O         55.1700   12.9790   41.2180 O.2   410  THR410     -0.2866
     47  CB        58.3620   13.9900   41.5350 C.3   410  THR410      0.1770
     48  OG1       59.3920   14.7590   40.8830 O.3   410  THR410     -0.2211
     49  CG2       58.4350   12.5790   41.0450 C.3   410  THR410      0.0375
     50  N         52.1530   14.5320   40.2840 N.3   413  ARG413     -0.1231
     51  CA        51.9530   14.0240   38.9280 C.3   413  ARG413      0.1694
     52  C         51.9600   12.5160   38.8460 C.2   413  ARG413      0.2593
     53  O         51.1820   11.9390   38.0810 O.2   413  ARG413     -0.2718
     54  CB        52.9990   14.6150   37.9890 C.3   413  ARG413      0.0321
     55  CG        52.7630   16.1040   37.6890 C.3   413  ARG413      0.0489
     56  CD        53.7500   16.6380   36.6890 C.3   413  ARG413      0.2205
     57  NE        53.5900   15.9160   35.4340 N.pl3 413  ARG413     -0.0865
     58  CZ        54.1680   16.2480   34.2850 C.cat 413  ARG413      0.5346
     59  NH1       54.9490   17.3200   34.2060 N.pl3 413  ARG413      0.1354
     60  NH2       53.9600   15.4980   33.2140 N.pl3 413  ARG413      0.1354
     61  N         52.8400   11.8800   39.6230 N.am  414  GLY414     -0.1942
     62  CA        52.8990   10.4140   39.6960 C.3   414  GLY414      0.2014
     63  C         53.5590    9.7250   38.5110 C.2   414  GLY414      0.2639
     64  O         53.9830   10.3830   37.5470 O.2   414  GLY414     -0.2714
     65  N         53.6350    8.3950   38.5830 N.am  415  VAL415     -0.1963
     66  CA        54.2610    7.5750   37.5550 C.3   415  VAL415      0.1727
     67  C         53.3100    7.2660   36.4190 C.2   415  VAL415      0.2616
     68  O         52.2920    6.6380   36.6200 O.2   415  VAL415     -0.2715
     69  CB        54.7610    6.2680   38.1570 C.3   415  VAL415      0.0290
     70  CG1       55.4000    5.4020   37.0960 C.3   415  VAL415      0.0023
     71  CG2       55.7570    6.5710   39.2920 C.3   415  VAL415      0.0023
     72  N         53.6260    7.7250   35.2150 N.am  416  TYR416     -0.1960
     73  CA        52.7970    7.4270   34.0510 C.3   416  TYR416      0.1756
     74  C         53.5390    7.8340   32.8070 C.2   416  TYR416      0.2461
     75  O         54.0920    8.9270   32.7650 O.2   416  TYR416     -0.2730
     76  CB        51.4530    8.1570   34.0760 C.3   416  TYR416      0.0574
     77  CG        50.5730    7.7130   32.9310 C.ar  416  TYR416     -0.0198
     78  CD1       49.7590    6.5610   33.0420 C.ar  416  TYR416     -0.0009
     79  CD2       50.5800    8.4090   31.7210 C.ar  416  TYR416     -0.0009
     80  CE1       48.9740    6.1440   31.9730 C.ar  416  TYR416      0.0417
     81  CE2       49.8140    7.9960   30.6530 C.ar  416  TYR416      0.0417
     82  CZ        49.0120    6.8740   30.7760 C.ar  416  TYR416      0.1957
     83  OH        48.2490    6.4980   29.6920 O.3   416  TYR416     -0.2866
     84  N         53.5580    6.9570   31.7860 N.am  417  PRO417     -0.2727
     85  CA        52.9740    5.5960   31.7780 C.3   417  PRO417      0.1402
     86  C         53.6320    4.6310   32.7780 C.2   417  PRO417      0.2269
     87  O         53.0120    3.6560   33.2500 O.2   417  PRO417     -0.2865
     88  CB        53.2240    5.1090   30.3540 C.3   417  PRO417      0.0296
     89  CG        53.4990    6.3530   29.5470 C.3   417  PRO417      0.0237
     90  CD        54.1600    7.3140   30.4890 C.3   417  PRO417      0.0939
@<TRIPOS>BOND
     1    21    20    1
     2    20    19    1
     3    16    15    2
     4    89    88    1
     5    89    90    1
     6    19    18    1
     7    83    82    1
     8    15    14    1
     9    88    85    1
    10    18    17    1
    11    90    84    1
    12    81    82   ar
    13    81    79   ar
    14    82    80   ar
    15    36    34    1
    16    17    14    1
    17    14    13    1
    18    35    37    1
    19    35    34    1
    20    79    77   ar
    21    85    84    1
    22    85    86    1
    23    84    74   am
    24    34    31    1
    25    80    78   ar
    26    75    74    2
    27    86    87    2
    28    74    73    1
    29    77    78   ar
    30    77    76    1
    31    60    58    1
    32    31    30    1
    33    31    32    1
    34    22    23    1
    35    30    24   am
    36    33    32    2
    37    25    24    2
    38    73    76    1
    39    73    72    1
    40    24    23    1
    41    59    58    1
    42    58    57    2
    43    32    38   am
    44    23    26    1
    45    72    67   am
    46    57    56    1
    47    38    39    1
    48    26    27    1
    49     9     7   ar
    50     9    11   ar
    51    67    68    2
    52    67    66    1
    53    41    40    2
    54    40    39    1
    55    39    42    1
    56    29    27   ar
    57    56    55    1
    58    12    11    1
    59    27    28   ar
    60     7     6   ar
    61    70    69    1
    62    11    10   ar
    63    64    63    2
    64    66    69    1
    65    66    65    1
    66     4     3    2
    67    55    54    1
    68    54    51    1
    69    53    52    2
    70    69    71    1
    71     6     5    1
    72     6     8   ar
    73    63    65   am
    74    63    62    1
    75    10     8   ar
    76     3     2    1
    77     5     2    1
    78     2     1    1
    79    52    51    1
    80    52    61   am
    81    51    50    1
    82    61    62    1
    83    48    47    1
    84    49    47    1
    85    46    45    2
    86    44    47    1
    87    44    43    1
    88    44    45    1
