@<TRIPOS>MOLECULE
tmp/3aofB00.pdb
 181 181 0 0 0
SMALL
GASTEIGER

@<TRIPOS>ATOM
      1  N         10.2090  -11.2500   -9.4120 N.3    17  ASN17      -0.1240
      2  CA         9.3820  -11.9420  -10.4010 C.3    17  ASN17       0.1653
      3  C         10.1870  -12.3030  -11.6350 C.2    17  ASN17       0.2266
      4  O          9.6640  -12.3220  -12.7530 O.2    17  ASN17      -0.2867
      5  CB         8.1360  -11.1300  -10.7520 C.3    17  ASN17       0.1155
      6  CG         7.0880  -11.2120   -9.6690 C.2    17  ASN17       0.2627
      7  OD1        5.9710  -11.6800   -9.9060 O.2    17  ASN17      -0.2716
      8  ND2        7.4360  -10.7540   -8.4700 N.am   17  ASN17      -0.0877
      9  N         13.7000  -15.8570   -9.5530 N.3    20  GLU20      -0.1245
     10  CA        13.1560  -16.6800   -8.4780 C.3    20  GLU20       0.1567
     11  C         11.8880  -17.4380   -8.8760 C.2    20  GLU20       0.2260
     12  O         11.3650  -18.2230   -8.0910 O.2    20  GLU20      -0.2867
     13  CB        12.9600  -15.8640   -7.1880 C.3    20  GLU20       0.0388
     14  CG        11.6500  -15.0910   -7.0620 C.3    20  GLU20       0.1160
     15  CD        11.5950  -13.7760   -7.8260 C.2    20  GLU20       0.3649
     16  OE1       12.3510  -13.5840   -8.8100 O.co2  20  GLU20      -0.2457
     17  OE2       10.7640  -12.9250   -7.4280 O.co2  20  GLU20      -0.2457
     18  N          8.9540  -16.7440  -16.2880 N.3    26  ASP26      -0.1225
     19  CA         7.6790  -17.3790  -15.9540 C.3    26  ASP26       0.1805
     20  C          6.7520  -16.4020  -15.2370 C.2    26  ASP26       0.2597
     21  O          5.5290  -16.4370  -15.4240 O.2    26  ASP26      -0.2718
     22  CB         7.8800  -18.6040  -15.0570 C.3    26  ASP26       0.1424
     23  CG         8.4860  -19.7870  -15.7830 C.2    26  ASP26       0.3668
     24  OD1        8.6230  -19.7450  -17.0250 O.co2  26  ASP26      -0.2456
     25  OD2        8.8330  -20.7750  -15.0970 O.co2  26  ASP26      -0.2456
     26  N          7.3230  -15.5460  -14.3960 N.am   27  TRP27      -0.1976
     27  CA         6.5190  -14.6420  -13.5840 C.3    27  TRP27       0.1640
     28  C          6.5440  -13.2150  -14.1100 C.2    27  TRP27       0.2290
     29  O          6.1860  -12.2730  -13.3960 O.2    27  TRP27      -0.2864
     30  CB         6.9460  -14.6870  -12.1140 C.3    27  TRP27       0.0576
     31  CG         6.6680  -15.9990  -11.4480 C.ar   27  TRP27       0.0006
     32  CD1        6.0700  -17.1020  -12.0050 C.ar   27  TRP27       0.0946
     33  CD2        6.9740  -16.3520  -10.0960 C.ar   27  TRP27       0.0152
     34  NE1        5.9920  -18.1120  -11.0780 N.ar   27  TRP27      -0.2442
     35  CE2        6.5370  -17.6770   -9.8970 C.ar   27  TRP27       0.0810
     36  CE3        7.5740  -15.6750   -9.0310 C.ar   27  TRP27       0.0012
     37  CZ2        6.6850  -18.3370   -8.6780 C.ar   27  TRP27       0.0191
     38  CZ3        7.7180  -16.3300   -7.8240 C.ar   27  TRP27       0.0001
     39  CH2        7.2770  -17.6470   -7.6560 C.ar   27  TRP27       0.0015
     40  N         16.3460  -18.4210   -3.1350 N.3    92  HIS92      -0.1226
     41  CA        14.9680  -17.9290   -2.9880 C.3    92  HIS92       0.1752
     42  C         14.0050  -19.0130   -3.4440 C.2    92  HIS92       0.2596
     43  O         14.2830  -19.7290   -4.4000 O.2    92  HIS92      -0.2718
     44  CB        14.7920  -16.7160   -3.9080 C.3    92  HIS92       0.0759
     45  CG        13.8900  -15.6310   -3.3930 C.ar   92  HIS92       0.0818
     46  ND1       12.5140  -15.6500   -3.5100 N.ar   92  HIS92      -0.2268
     47  CD2       14.2030  -14.4400   -2.8320 C.ar   92  HIS92       0.1154
     48  CE1       12.0200  -14.5250   -3.0170 C.ar   92  HIS92       0.1986
     49  NE2       13.0260  -13.7750   -2.6020 N.ar   92  HIS92      -0.2212
     50  N         12.8850  -19.1310   -2.7530 N.am   93  HIS93      -0.1975
     51  CA        11.8370  -20.1100   -3.0690 C.3    93  HIS93       0.1656
     52  C         12.3630  -21.5260   -3.2440 C.2    93  HIS93       0.2291
     53  O         11.9720  -22.2270   -4.1780 O.2    93  HIS93      -0.2864
     54  CB        11.0330  -19.6930   -4.3090 C.3    93  HIS93       0.0771
     55  CG        10.2750  -18.4150   -4.1400 C.ar   93  HIS93       0.0820
     56  ND1       10.0640  -17.5300   -5.1770 N.ar   93  HIS93      -0.2267
     57  CD2        9.6650  -17.8790   -3.0560 C.ar   93  HIS93       0.1154
     58  CE1        9.3590  -16.5010   -4.7350 C.ar   93  HIS93       0.1986
     59  NE2        9.1080  -16.6870   -3.4520 N.ar   93  HIS93      -0.2212
     60  N         16.2810  -17.0060    1.5400 N.3   132  ASN132     -0.1225
     61  CA        15.1500  -16.1110    1.6550 C.3   132  ASN132      0.1785
     62  C         14.0260  -16.6610    2.5200 C.2   132  ASN132      0.2597
     63  O         13.5520  -17.7760    2.3010 O.2   132  ASN132     -0.2718
     64  CB        14.5850  -15.8020    0.2770 C.3   132  ASN132      0.1169
     65  CG        13.4650  -14.7960    0.3360 C.2   132  ASN132      0.2627
     66  OD1       13.6910  -13.6290    0.6370 O.2   132  ASN132     -0.2716
     67  ND2       12.2470  -15.2460    0.0850 N.am  132  ASN132     -0.0877
     68  N         13.6200  -15.8550    3.4990 N.am  133  ALA133     -0.1979
     69  CA        12.3860  -16.0570    4.2610 C.3   133  ALA133      0.1597
     70  C         12.0320  -17.5090    4.6040 C.2   133  ALA133      0.2287
     71  O         11.0060  -18.0250    4.1570 O.2   133  ALA133     -0.2864
     72  CB        11.2160  -15.3760    3.5440 C.3   133  ALA133      0.0319
     73  N          8.8250  -16.5640    7.8970 N.3   170  TRP170     -0.1241
     74  CA         8.6260  -15.7220    6.7160 C.3   170  TRP170      0.1605
     75  C          9.4960  -14.4640    6.6500 C.2   170  TRP170      0.2264
     76  O          9.2420  -13.5820    5.8340 O.2   170  TRP170     -0.2867
     77  CB         7.1520  -15.3470    6.5300 C.3   170  TRP170      0.0550
     78  CG         6.2860  -16.4590    6.0160 C.ar  170  TRP170      0.0003
     79  CD1        5.6960  -17.4480    6.7480 C.ar  170  TRP170      0.0946
     80  CD2        5.8960  -16.6800    4.6560 C.ar  170  TRP170      0.0152
     81  NE1        4.9690  -18.2770    5.9240 N.ar  170  TRP170     -0.2442
     82  CE2        5.0760  -17.8260    4.6360 C.ar  170  TRP170      0.0810
     83  CE3        6.1630  -16.0240    3.4520 C.ar  170  TRP170      0.0012
     84  CZ2        4.5200  -18.3290    3.4600 C.ar  170  TRP170      0.0191
     85  CZ3        5.6070  -16.5240    2.2830 C.ar  170  TRP170      0.0001
     86  CH2        4.7960  -17.6640    2.2970 C.ar  170  TRP170      0.0015
     87  N         12.5170   -8.5930    6.3960 N.3   193  HIS193     -0.1241
     88  CA        11.5720   -8.1410    5.3870 C.3   193  HIS193      0.1621
     89  C         10.4330   -7.4710    6.0990 C.2   193  HIS193      0.2264
     90  O          9.8070   -8.0710    6.9700 O.2   193  HIS193     -0.2867
     91  CB        11.0680   -9.3190    4.5820 C.3   193  HIS193      0.0745
     92  CG        12.1510   -9.9960    3.8170 C.ar  193  HIS193      0.0817
     93  ND1       11.9470  -11.1400    3.0780 N.ar  193  HIS193     -0.2268
     94  CD2       13.4580   -9.6790    3.6740 C.ar  193  HIS193      0.1154
     95  CE1       13.0860  -11.4990    2.5140 C.ar  193  HIS193      0.1986
     96  NE2       14.0190  -10.6290    2.8580 N.ar  193  HIS193     -0.2212
     97  N          6.8640   -5.7370    6.0350 N.3   195  TYR195     -0.1241
     98  CA         5.6330   -5.6200    5.2710 C.3   195  TYR195      0.1605
     99  C          4.4510   -5.2660    6.1710 C.2   195  TYR195      0.2264
    100  O          3.2980   -5.4080    5.7720 O.2   195  TYR195     -0.2867
    101  CB         5.3530   -6.9360    4.5480 C.3   195  TYR195      0.0534
    102  CG         6.2280   -7.2150    3.3410 C.ar  195  TYR195     -0.0201
    103  CD1        6.1120   -6.4510    2.1850 C.ar  195  TYR195     -0.0009
    104  CD2        7.1410   -8.2610    3.3430 C.ar  195  TYR195     -0.0009
    105  CE1        6.8800   -6.7120    1.0740 C.ar  195  TYR195      0.0417
    106  CE2        7.9170   -8.5400    2.2170 C.ar  195  TYR195      0.0417
    107  CZ         7.7800   -7.7550    1.0940 C.ar  195  TYR195      0.1957
    108  OH         8.5170   -8.0150   -0.0360 O.3   195  TYR195     -0.2866
    109  N         -0.4250   -6.3400    1.6830 N.3   202  HIS202     -0.1241
    110  CA        -0.7440   -7.5100    0.8790 C.3   202  HIS202      0.1621
    111  C         -2.2310   -7.6640    0.5830 C.2   202  HIS202      0.2264
    112  O         -2.6910   -8.7390    0.1850 O.2   202  HIS202     -0.2867
    113  CB        -0.1910   -8.7750    1.5310 C.3   202  HIS202      0.0745
    114  CG         1.2740   -8.9680    1.2970 C.ar  202  HIS202      0.0817
    115  ND1        2.2320   -8.1410    1.8410 N.ar  202  HIS202     -0.2268
    116  CD2        1.9400   -9.8710    0.5410 C.ar  202  HIS202      0.1154
    117  CE1        3.4300   -8.5470    1.4560 C.ar  202  HIS202      0.1986
    118  NE2        3.2820   -9.5920    0.6600 N.ar  202  HIS202     -0.2212
    119  N         -2.9090  -12.2230   -4.7310 N.3   206  GLU206     -0.1231
    120  CA        -3.4760  -13.4770   -5.2260 C.3   206  GLU206      0.1699
    121  C         -2.8650  -14.6920   -4.5500 C.2   206  GLU206      0.2592
    122  O         -3.5100  -15.7310   -4.4430 O.2   206  GLU206     -0.2718
    123  CB        -3.3010  -13.6000   -6.7410 C.3   206  GLU206      0.0402
    124  CG        -4.0310  -12.5420   -7.5640 C.3   206  GLU206      0.1161
    125  CD        -3.1920  -11.3140   -7.8470 C.2   206  GLU206      0.3649
    126  OE1       -2.8000  -11.1190   -9.0100 O.co2 206  GLU206     -0.2457
    127  OE2       -2.9200  -10.5380   -6.9060 O.co2 206  GLU206     -0.2457
    128  N         -1.6210  -14.5600   -4.0970 N.am  207  TRP207     -0.1976
    129  CA        -0.8760  -15.6800   -3.5290 C.3   207  TRP207      0.1640
    130  C         -1.0360  -15.8040   -2.0080 C.2   207  TRP207      0.2290
    131  O         -0.4180  -16.6710   -1.3950 O.2   207  TRP207     -0.2864
    132  CB         0.6130  -15.5890   -3.9100 C.3   207  TRP207      0.0576
    133  CG         1.2820  -14.3490   -3.3840 C.ar  207  TRP207      0.0006
    134  CD1        2.0280  -14.2420   -2.2470 C.ar  207  TRP207      0.0946
    135  CD2        1.2520  -13.0410   -3.9690 C.ar  207  TRP207      0.0152
    136  NE1        2.4590  -12.9470   -2.0830 N.ar  207  TRP207     -0.2442
    137  CE2        1.9970  -12.1890   -3.1270 C.ar  207  TRP207      0.0810
    138  CE3        0.6730  -12.5070   -5.1260 C.ar  207  TRP207      0.0012
    139  CZ2        2.1720  -10.8340   -3.4020 C.ar  207  TRP207      0.0191
    140  CZ3        0.8520  -11.1570   -5.3960 C.ar  207  TRP207      0.0001
    141  CH2        1.5890  -10.3390   -4.5340 C.ar  207  TRP207      0.0015
    142  N         13.6100   -6.4340    1.9240 N.3   250  GLU250     -0.1245
    143  CA        12.3600   -6.2670    1.1780 C.3   250  GLU250      0.1567
    144  C         11.4230   -5.4090    1.9910 C.2   250  GLU250      0.2260
    145  O         11.2950   -5.6000    3.1980 O.2   250  GLU250     -0.2867
    146  CB        11.6460   -7.5950    0.9580 C.3   250  GLU250      0.0388
    147  CG        12.4010   -8.6120    0.1450 C.3   250  GLU250      0.1160
    148  CD        11.5770   -9.8550   -0.1130 C.2   250  GLU250      0.3649
    149  OE1       10.3530   -9.8560    0.1750 O.co2 250  GLU250     -0.2457
    150  OE2       12.1480  -10.8350   -0.6080 O.co2 250  GLU250     -0.2457
    151  N         10.7990   -3.7840   -2.5600 N.3   283  TRP283     -0.1241
    152  CA        10.1780   -4.8630   -3.3050 C.3   283  TRP283      0.1605
    153  C          9.0400   -4.2350   -4.1110 C.2   283  TRP283      0.2264
    154  O          8.0520   -3.8150   -3.5170 O.2   283  TRP283     -0.2867
    155  CB         9.6050   -5.9340   -2.3520 C.3   283  TRP283      0.0550
    156  CG         9.0550   -7.1050   -3.1110 C.ar  283  TRP283      0.0003
    157  CD1        7.7560   -7.3240   -3.4810 C.ar  283  TRP283      0.0946
    158  CD2        9.8120   -8.1980   -3.6410 C.ar  283  TRP283      0.0152
    159  NE1        7.6640   -8.4880   -4.2090 N.ar  283  TRP283     -0.2442
    160  CE2        8.9150   -9.0400   -4.3270 C.ar  283  TRP283      0.0810
    161  CE3       11.1670   -8.5400   -3.6060 C.ar  283  TRP283      0.0012
    162  CZ2        9.3330  -10.2100   -4.9630 C.ar  283  TRP283      0.0191
    163  CZ3       11.5820   -9.6920   -4.2410 C.ar  283  TRP283      0.0001
    164  CH2       10.6710  -10.5180   -4.9080 C.ar  283  TRP283      0.0015
    165  N          7.3180   -5.3130  -11.2620 N.3   287  SER287     -0.1217
    166  CA         6.2150   -6.2700  -11.2840 C.3   287  SER287      0.1889
    167  C          5.0030   -5.7410  -10.4940 C.2   287  SER287      0.2288
    168  O          4.6680   -4.5600  -10.5940 O.2   287  SER287     -0.2866
    169  CB         6.7080   -7.6380  -10.7930 C.3   287  SER287      0.2089
    170  OG         5.7240   -8.6520  -10.9160 O.3   287  SER287     -0.2183
    171  N          4.4660   -5.0020   -7.4230 N.3   289  PHE289     -0.1241
    172  CA         4.7470   -3.9300   -6.4690 C.3   289  PHE289      0.1605
    173  C          5.5820   -2.8640   -7.1810 C.2   289  PHE289      0.2264
    174  O          6.1400   -1.9720   -6.5430 O.2   289  PHE289     -0.2867
    175  CB         5.6010   -4.4360   -5.2930 C.3   289  PHE289      0.0534
    176  CG         4.9140   -5.3940   -4.3410 C.ar  289  PHE289     -0.0203
    177  CD1        4.6990   -5.0280   -3.0150 C.ar  289  PHE289     -0.0042
    178  CD2        4.5640   -6.6750   -4.7430 C.ar  289  PHE289     -0.0042
    179  CE1        4.1200   -5.9090   -2.1260 C.ar  289  PHE289     -0.0003
    180  CE2        3.9900   -7.5630   -3.8530 C.ar  289  PHE289     -0.0003
    181  CZ         3.7650   -7.1810   -2.5490 C.ar  289  PHE289     -0.0000
@<TRIPOS>BOND
     1    24    23   ar
     2    18    19    1
     3    19    20    1
     4    19    22    1
     5    23    25   ar
     6    23    22    1
     7    21    20    2
     8    20    26   am
     9    26    27    1
    10    28    27    1
    11    28    29    2
    12    27    30    1
    13     4     3    2
    14    30    31    1
    15    32    31   ar
    16    32    34   ar
    17     3     2    1
    18    31    33   ar
    19   166   165    1
    20   166   169    1
    21   166   167    1
    22    34    35   ar
    23   170   169    1
    24     5     2    1
    25     5     6    1
    26   168   167    2
    27     2     1    1
    28    33    35   ar
    29    33    36   ar
    30     7     6    2
    31    35    37   ar
    32     6     8   am
    33     9    10    1
    34    36    38   ar
    35   126   125   ar
    36    11    10    1
    37    11    12    2
    38    16    15   ar
    39    37    39   ar
    40    10    13    1
    41   125   124    1
    42   125   127   ar
    43    15    17   ar
    44    15    14    1
    45    38    39   ar
    46   124   123    1
    47   171   172    1
    48    13    14    1
    49   173   174    2
    50   173   172    1
    51   123   120    1
    52   172   175    1
    53   140   138   ar
    54   140   141   ar
    55   175   176    1
    56   120   119    1
    57   120   121    1
    58    56    58   ar
    59    56    55   ar
    60   138   135   ar
    61   162   164   ar
    62   162   160   ar
    63   164   163   ar
    64   178   176   ar
    65   178   180   ar
    66    58    59   ar
    67   121   122    2
    68   121   128   am
    69   141   139   ar
    70    43    42    2
    71   176   177   ar
    72   160   159   ar
    73   160   158   ar
    74    54    55    1
    75    54    51    1
    76   163   161   ar
    77   159   157   ar
    78    53    52    2
    79    55    57   ar
    80   153   154    2
    81   153   152    1
    82   128   129    1
    83   135   133   ar
    84   135   137   ar
    85   132   129    1
    86   132   133    1
    87    44    45    1
    88    44    41    1
    89   180   181   ar
    90   158   161   ar
    91   158   156   ar
    92   129   130    1
    93    46    45   ar
    94    46    48   ar
    95   157   156   ar
    96    59    57   ar
    97    42    41    1
    98    42    50   am
    99   139   137   ar
   100    45    47   ar
   101   133   134   ar
   102   152   151    1
   103   152   155    1
   104    52    51    1
   105    40    41    1
   106   137   136   ar
   107   156   155    1
   108    51    50    1
   109    48    49   ar
   110   177   179   ar
   111    47    49   ar
   112   181   179   ar
   113   134   136   ar
   114   130   131    2
   115   150   148   ar
   116   148   147    1
   117   148   149   ar
   118   108   107    1
   119    67    65   am
   120   147   146    1
   121   112   111    2
   122    64    65    1
   123    64    61    1
   124    65    66    2
   125   116   118   ar
   126   116   114   ar
   127   111   110    1
   128   118   117   ar
   129   110   113    1
   130   110   109    1
   131   146   143    1
   132   105   107   ar
   133   105   103   ar
   134   107   106   ar
   135   143   142    1
   136   143   144    1
   137   114   113    1
   138   114   115   ar
   139   117   115   ar
   140    60    61    1
   141    61    62    1
   142   144   145    2
   143   103   102   ar
   144   106   104   ar
   145    85    86   ar
   146    85    83   ar
   147    86    84   ar
   148    63    62    2
   149    95    96   ar
   150    95    93   ar
   151    62    68   am
   152    96    94   ar
   153    93    92   ar
   154   102   104   ar
   155   102   101    1
   156    83    80   ar
   157    84    82   ar
   158    68    69    1
   159    72    69    1
   160    94    92   ar
   161    92    91    1
   162    71    70    2
   163    69    70    1
   164   101    98    1
   165    91    88    1
   166    82    80   ar
   167    82    81   ar
   168    80    78   ar
   169    98    97    1
   170    98    99    1
   171    88    89    1
   172    88    87    1
   173   100    99    2
   174    76    75    2
   175    81    79   ar
   176    78    77    1
   177    78    79   ar
   178    89    90    2
   179    77    74    1
   180    75    74    1
   181    74    73    1
