@<TRIPOS>MOLECULE
tmp/3aogK00.pdb
 99 91 0 0 0
SMALL
GASTEIGER

@<TRIPOS>ATOM
      1  N         -2.0800  -35.2890  -60.6660 N.3    75  LYS75      -0.1231
      2  CA        -1.4720  -35.2420  -61.9660 C.3    75  LYS75       0.1693
      3  C         -2.5470  -35.0610  -63.0070 C.2    75  LYS75       0.2593
      4  O         -3.5270  -35.8100  -63.0400 O.2    75  LYS75      -0.2718
      5  CB        -0.6780  -36.5260  -62.2550 C.3    75  LYS75       0.0285
      6  CG         0.2790  -36.3700  -63.4250 C.3    75  LYS75       0.0035
      7  CD         1.5930  -35.7480  -62.9350 C.3    75  LYS75       0.0206
      8  CE         2.5510  -35.3940  -64.0800 C.3    75  LYS75       0.1093
      9  NZ         2.0410  -34.1870  -64.8180 N.3    75  LYS75      -0.1314
     10  N         -2.3290  -34.0780  -63.8750 N.am   76  GLY76      -0.1942
     11  CA        -3.3260  -33.6720  -64.8530 C.3    76  GLY76       0.2014
     12  C         -3.0380  -32.3180  -65.4650 C.2    76  GLY76       0.2639
     13  O         -2.4760  -31.4070  -64.8150 O.2    76  GLY76      -0.2714
     14  N         -3.4380  -32.1810  -66.7230 N.am   77  GLY77      -0.1954
     15  CA        -3.1640  -30.9680  -67.4660 C.3    77  GLY77       0.1869
     16  C         -4.1040  -29.8190  -67.1410 C.2    77  GLY77       0.2309
     17  O         -5.1180  -29.9830  -66.4370 O.2    77  GLY77      -0.2863
     18  N         -8.8220  -38.6390  -64.5370 N.3    96  MET96      -0.1245
     19  CA        -7.3700  -38.7040  -64.3020 C.3    96  MET96       0.1570
     20  C         -6.9960  -39.6500  -63.1580 C.2    96  MET96       0.2261
     21  O         -6.0110  -40.4010  -63.2530 O.2    96  MET96      -0.2867
     22  CB        -6.7440  -37.3200  -64.0790 C.3    96  MET96       0.0387
     23  CG        -6.4820  -36.5440  -65.3700 C.3    96  MET96       0.0595
     24  SD        -5.8650  -37.4810  -66.8050 S.3    96  MET96      -0.1393
     25  CE        -4.3730  -38.2160  -66.1610 C.3    96  MET96       0.0692
     26  N         -7.4360  -43.0980  -65.0090 N.3    99  LYS99      -0.1245
     27  CA        -6.3290  -43.3130  -65.9390 C.3    99  LYS99       0.1561
     28  C         -5.0410  -43.6250  -65.1950 C.2    99  LYS99       0.2260
     29  O         -4.5010  -44.7110  -65.3300 O.2    99  LYS99      -0.2867
     30  CB        -6.1520  -42.1150  -66.8790 C.3    99  LYS99       0.0271
     31  CG        -5.4790  -42.4640  -68.2030 C.3    99  LYS99       0.0035
     32  CD        -5.1870  -41.2230  -69.0120 C.3    99  LYS99       0.0206
     33  CE        -4.6250  -41.5820  -70.3800 C.3    99  LYS99       0.1093
     34  NZ        -5.5610  -42.4750  -71.1250 N.3    99  LYS99      -0.1314
     35  N         -6.8060  -31.9870  -62.3660 N.3   111  LYS111     -0.1245
     36  CA        -7.0820  -31.2240  -63.5840 C.3   111  LYS111      0.1561
     37  C         -7.2240  -29.7220  -63.2830 C.2   111  LYS111      0.2260
     38  O         -7.5200  -29.3100  -62.1580 O.2   111  LYS111     -0.2867
     39  CB        -8.3400  -31.7230  -64.3280 C.3   111  LYS111      0.0271
     40  CG        -8.0910  -32.7500  -65.4410 C.3   111  LYS111      0.0035
     41  CD        -7.4240  -32.1430  -66.6760 C.3   111  LYS111      0.0206
     42  CE        -7.8030  -32.8670  -67.9830 C.3   111  LYS111      0.1093
     43  NZ        -6.9490  -34.0380  -68.4220 N.3   111  LYS111     -0.1314
     44  N          0.3230  -30.3110  -66.4280 N.3   149  ALA149     -0.1231
     45  CA         0.8500  -30.6960  -67.7230 C.3   149  ALA149      0.1679
     46  C          0.0070  -29.9360  -68.7550 C.2   149  ALA149      0.2434
     47  O         -0.8500  -29.1270  -68.3600 O.2   149  ALA149     -0.2733
     48  CB         0.7190  -32.1980  -67.8980 C.3   149  ALA149      0.0304
     49  N          0.2630  -30.1390  -70.0650 N.am  150  PRO150     -0.2718
     50  CA        -0.5900  -29.4820  -71.0630 C.3   150  PRO150      0.1535
     51  C         -1.9560  -30.1450  -71.1880 C.2   150  PRO150      0.2598
     52  O         -2.1350  -31.2530  -70.7080 O.2   150  PRO150     -0.2715
     53  CB         0.1890  -29.6690  -72.3580 C.3   150  PRO150      0.0310
     54  CG         1.5740  -29.9460  -71.9470 C.3   150  PRO150      0.0237
     55  CD         1.4480  -30.7390  -70.6950 C.3   150  PRO150      0.0939
     56  N         -2.9100  -29.4580  -71.8050 N.am  151  ASP151     -0.1972
     57  CA        -4.1970  -30.0500  -72.2200 C.3   151  ASP151      0.1709
     58  C         -4.7000  -29.1870  -73.3930 C.2   151  ASP151      0.2293
     59  O         -3.8830  -28.5540  -74.0720 O.2   151  ASP151     -0.2864
     60  CB        -5.1940  -30.1240  -71.0460 C.3   151  ASP151      0.1436
     61  CG        -6.3680  -31.0850  -71.3130 C.2   151  ASP151      0.3671
     62  OD1       -7.5250  -30.6190  -71.3330 O.co2 151  ASP151     -0.2456
     63  OD2       -6.1550  -32.3030  -71.5150 O.co2 151  ASP151     -0.2456
     64  N          8.7100  -37.6730  -76.0780 N.3   191  ARG191     -0.1245
     65  CA         7.3530  -37.2090  -75.8020 C.3   191  ARG191      0.1563
     66  C          6.5130  -37.0270  -77.0740 C.2   191  ARG191      0.2260
     67  O          5.3300  -37.3650  -77.0820 O.2   191  ARG191     -0.2867
     68  CB         7.3800  -35.9330  -74.9480 C.3   191  ARG191      0.0307
     69  CG         6.2140  -34.9920  -75.2080 C.3   191  ARG191      0.0489
     70  CD         6.1910  -33.8010  -74.2700 C.3   191  ARG191      0.2205
     71  NE         4.8020  -33.4050  -74.0650 N.pl3 191  ARG191     -0.0865
     72  CZ         3.9600  -34.0390  -73.2490 C.cat 191  ARG191      0.5346
     73  NH1        4.3700  -35.0920  -72.5340 N.pl3 191  ARG191      0.1354
     74  NH2        2.7050  -33.6110  -73.1370 N.pl3 191  ARG191      0.1354
     75  N         -9.2590  -39.5090  -77.0500 N.3   317  ASN317     -0.1240
     76  CA       -10.1090  -39.5250  -75.8730 C.3   317  ASN317      0.1653
     77  C        -11.5800  -39.6860  -76.2330 C.2   317  ASN317      0.2266
     78  O        -12.1400  -38.8470  -76.9230 O.2   317  ASN317     -0.2867
     79  CB        -9.8940  -38.2560  -75.0430 C.3   317  ASN317      0.1155
     80  CG        -8.4950  -38.1710  -74.4540 C.2   317  ASN317      0.2627
     81  OD1       -8.0360  -39.0820  -73.7490 O.2   317  ASN317     -0.2716
     82  ND2       -7.8100  -37.0640  -74.7320 N.am  317  ASN317     -0.0877
     83  N          1.7760  -40.6990  -73.8380 N.3   345  GLY345     -0.1210
     84  CA         2.1330  -39.3330  -73.4480 C.3   345  GLY345      0.1956
     85  C          2.1370  -39.1080  -71.9430 C.2   345  GLY345      0.2611
     86  O          3.0510  -38.4940  -71.4030 O.2   345  GLY345     -0.2717
     87  N          1.1090  -39.6200  -71.2780 N.am  346  VAL346     -0.1979
     88  CA         0.9540  -39.5180  -69.8380 C.3   346  VAL346      0.1595
     89  C          2.0510  -40.3520  -69.1240 C.2   346  VAL346      0.2287
     90  O          2.5710  -39.9670  -68.0810 O.2   346  VAL346     -0.2864
     91  CB        -0.5330  -39.8570  -69.4710 C.3   346  VAL346      0.0276
     92  CG1       -0.6790  -41.1930  -68.7530 C.3   346  VAL346      0.0022
     93  CG2       -1.1890  -38.7020  -68.7150 C.3   346  VAL346      0.0022
     94  N          5.3590  -38.2890  -69.6450 N.3   349  SER349     -0.1217
     95  CA         5.3820  -37.0930  -68.8100 C.3   349  SER349      0.1889
     96  C          5.7300  -37.5010  -67.3600 C.2   349  SER349      0.2288
     97  O          6.4080  -36.7560  -66.6420 O.2   349  SER349     -0.2866
     98  CB         4.0650  -36.3170  -68.8930 C.3   349  SER349      0.2089
     99  OG         3.1490  -36.8470  -67.9490 O.3   349  SER349     -0.2183
@<TRIPOS>BOND
     1    67    66    2
     2    66    65    1
     3    75    76    1
     4    78    77    2
     5    77    76    1
     6    64    65    1
     7    76    79    1
     8    65    68    1
     9    69    68    1
    10    69    70    1
    11    79    80    1
    12    82    80   am
    13    80    81    2
    14    70    71    1
    15    59    58    2
    16    71    72    2
    17    83    84    1
    18    84    85    1
    19    58    57    1
    20    72    74    1
    21    72    73    1
    22    53    54    1
    23    53    50    1
    24    57    56    1
    25    57    60    1
    26    54    55    1
    27    85    86    2
    28    85    87   am
    29    56    51   am
    30    63    61   ar
    31    62    61   ar
    32    61    60    1
    33    87    88    1
    34    51    50    1
    35    51    52    2
    36    34    33    1
    37    50    49    1
    38    55    49    1
    39    33    32    1
    40    49    46   am
    41    88    91    1
    42    88    89    1
    43    94    95    1
    44    91    92    1
    45    91    93    1
    46    89    90    2
    47    32    31    1
    48    98    95    1
    49    98    99    1
    50    95    96    1
    51    46    47    2
    52    46    45    1
    53    43    42    1
    54    31    30    1
    55    42    41    1
    56    48    45    1
    57    45    44    1
    58    15    16    1
    59    15    14    1
    60    96    97    2
    61    16    17    2
    62    30    27    1
    63    24    25    1
    64    24    23    1
    65    14    12   am
    66    41    40    1
    67    27    28    1
    68    27    26    1
    69    12    11    1
    70    12    13    2
    71    40    39    1
    72    23    22    1
    73    29    28    2
    74    11    10    1
    75     9     8    1
    76    18    19    1
    77    39    36    1
    78    19    22    1
    79    19    20    1
    80     8     7    1
    81    10     3   am
    82    36    37    1
    83    36    35    1
    84     6     7    1
    85     6     5    1
    86    37    38    2
    87    21    20    2
    88     4     3    2
    89     3     2    1
    90     5     2    1
    91     2     1    1
