@<TRIPOS>MOLECULE
tmp/3aotA01.pdb
 95 90 0 0 0
SMALL
GASTEIGER

@<TRIPOS>ATOM
      1  N        -21.5510   33.4200   10.4820 N.3    51  THR51      -0.1203
      2  CA       -20.4260   33.4020   11.3750 C.3    51  THR51       0.1994
      3  C        -20.8550   33.8490   12.7650 C.2    51  THR51       0.2618
      4  O        -21.8550   34.5710   12.9080 O.2    51  THR51      -0.2717
      5  CB       -19.2770   34.3480   10.8810 C.3    51  THR51       0.1784
      6  OG1      -19.8710   35.5390   10.3430 O.3    51  THR51      -0.2211
      7  CG2      -18.5340   33.6770    9.8030 C.3    51  THR51       0.0376
      8  N        -20.0850   33.4400   13.7790 N.am   52  GLY52      -0.1956
      9  CA       -20.3910   33.7740   15.1800 C.3    52  GLY52       0.1869
     10  C        -20.6590   32.5560   16.0630 C.2    52  GLY52       0.2309
     11  O        -20.5560   32.6330   17.3000 O.2    52  GLY52      -0.2863
     12  N        -18.8880   30.0570   16.6930 N.3    54  LYS54      -0.1231
     13  CA       -17.6970   29.6210   17.4340 C.3    54  LYS54       0.1693
     14  C        -17.6750   30.2630   18.8310 C.2    54  LYS54       0.2592
     15  O        -17.0180   29.7630   19.7260 O.2    54  LYS54      -0.2718
     16  CB       -16.4100   29.9530   16.6570 C.3    54  LYS54       0.0285
     17  CG       -16.0540   31.4090   16.6660 C.3    54  LYS54       0.0035
     18  CD       -14.8520   31.6890   15.7260 C.3    54  LYS54       0.0206
     19  CE       -14.1780   32.9950   16.0860 C.3    54  LYS54       0.1093
     20  NZ       -15.0650   34.1130   15.6430 N.3    54  LYS54      -0.1314
     21  N        -18.3950   31.3750   18.9790 N.am   55  ASN55      -0.1974
     22  CA       -18.4750   32.1310   20.2220 C.3    55  ASN55       0.1688
     23  C        -19.7980   31.9220   20.9730 C.2    55  ASN55       0.2292
     24  O        -20.0990   32.6630   21.9020 O.2    55  ASN55      -0.2864
     25  CB       -18.2410   33.6210   19.9300 C.3    55  ASN55       0.1181
     26  CG       -16.8890   33.8660   19.2140 C.2    55  ASN55       0.2629
     27  OD1      -15.8350   33.4230   19.6840 O.2    55  ASN55      -0.2716
     28  ND2      -16.9390   34.5190   18.0530 N.am   55  ASN55      -0.0877
     29  N        -24.2710   35.4380   18.8770 N.3    77  ASP77      -0.1225
     30  CA       -24.3020   36.6470   18.0540 C.3    77  ASP77       0.1805
     31  C        -23.9240   36.2220   16.6460 C.2    77  ASP77       0.2598
     32  O        -22.8220   35.7490   16.4090 O.2    77  ASP77      -0.2718
     33  CB       -23.3430   37.7070   18.5850 C.3    77  ASP77       0.1424
     34  CG       -23.7370   38.1850   19.9660 C.2    77  ASP77       0.3668
     35  OD1      -24.7800   38.8760   20.1210 O.co2  77  ASP77      -0.2456
     36  OD2      -23.0120   37.8450   20.9150 O.co2  77  ASP77      -0.2456
     37  N        -24.8520   36.3690   15.7200 N.am   78  LEU78      -0.1966
     38  CA       -24.6190   35.8330   14.3980 C.3    78  LEU78       0.1728
     39  C        -24.5190   36.9300   13.3600 C.2    78  LEU78       0.2616
     40  O        -25.2230   37.9170   13.4470 O.2    78  LEU78      -0.2715
     41  CB       -25.7470   34.8700   13.9980 C.3    78  LEU78       0.0311
     42  CG       -25.9790   33.6770   14.9270 C.3    78  LEU78       0.0022
     43  CD1      -27.1060   32.8660   14.3270 C.3    78  LEU78       0.0001
     44  CD2      -24.7260   32.8200   15.0260 C.3    78  LEU78       0.0001
     45  N        -23.6700   36.6990   12.3600 N.am   79  HIS79      -0.1973
     46  CA       -23.5710   37.5730   11.1990 C.3    79  HIS79       0.1656
     47  C        -23.9030   36.7000   10.0050 C.2    79  HIS79       0.2291
     48  O        -23.2460   35.7230    9.7280 O.2    79  HIS79      -0.2864
     49  CB       -22.1400   38.1830   11.0410 C.3    79  HIS79       0.0771
     50  CG       -21.9860   39.0100    9.7930 C.ar   79  HIS79       0.0820
     51  ND1      -22.4570   40.3070    9.6950 N.ar   79  HIS79      -0.2267
     52  CD2      -21.4340   38.7240    8.5900 C.ar   79  HIS79       0.1154
     53  CE1      -22.2130   40.7790    8.4810 C.ar   79  HIS79       0.1986
     54  NE2      -21.5830   39.8410    7.7970 N.ar   79  HIS79      -0.2212
     55  N        -27.4000   40.9580   11.3590 N.3   102  ASP102     -0.1225
     56  CA       -26.6130   40.8160   12.5760 C.3   102  ASP102      0.1805
     57  C        -27.5870   40.8360   13.7380 C.2   102  ASP102      0.2598
     58  O        -28.3790   41.7720   13.8580 O.2   102  ASP102     -0.2718
     59  CB       -25.6300   41.9960   12.7310 C.3   102  ASP102      0.1424
     60  CG       -24.6470   42.0740   11.5850 C.2   102  ASP102      0.3668
     61  OD1      -24.9750   42.7080   10.5390 O.co2 102  ASP102     -0.2456
     62  OD2      -23.5800   41.4540   11.7100 O.co2 102  ASP102     -0.2456
     63  N        -27.5780   39.8020   14.5770 N.am  103  THR103     -0.1939
     64  CA       -28.2870   39.9590   15.8490 C.3   103  THR103      0.2028
     65  C        -27.9050   38.9080   16.8310 C.2   103  THR103      0.2642
     66  O        -27.1660   37.9590   16.5170 O.2   103  THR103     -0.2714
     67  CB       -29.8250   40.0010   15.7090 C.3   103  THR103      0.1808
     68  OG1      -30.4220   40.6590   16.8990 O.3   103  THR103     -0.2208
     69  CG2      -30.3670   38.5500   15.4110 C.3   103  THR103      0.0379
     70  N        -28.4300   39.0790   18.0190 N.am  104  ASN104     -0.1971
     71  CA       -28.2500   38.1040   19.0820 C.3   104  ASN104      0.1688
     72  C        -29.4610   37.1540   19.0380 C.2   104  ASN104      0.2292
     73  O        -30.6180   37.6070   19.0920 O.2   104  ASN104     -0.2864
     74  CB       -28.1420   38.8330   20.4280 C.3   104  ASN104      0.1181
     75  CG       -27.7940   37.8610   21.5830 C.2   104  ASN104      0.2629
     76  OD1      -26.6170   37.5220   21.8100 O.2   104  ASN104     -0.2716
     77  ND2      -28.8210   37.3790   22.2770 N.am  104  ASN104     -0.0877
     78  N        -33.1640   42.9800   18.5940 N.3   139  GLU139     -0.1245
     79  CA       -33.6140   43.9900   17.6590 C.3   139  GLU139      0.1567
     80  C        -32.5640   43.9150   16.5510 C.2   139  GLU139      0.2260
     81  O        -31.4980   44.5300   16.6430 O.2   139  GLU139     -0.2867
     82  CB       -33.6440   45.3870   18.3010 C.3   139  GLU139      0.0388
     83  CG       -34.2330   46.4640   17.4000 C.3   139  GLU139      0.1160
     84  CD       -35.7680   46.3540   17.3010 C.2   139  GLU139      0.3649
     85  OE1      -36.4690   46.7020   18.2800 O.co2 139  GLU139     -0.2457
     86  OE2      -36.2640   45.9370   16.2370 O.co2 139  GLU139     -0.2457
     87  N        -30.1410   43.9640   13.2090 N.3   141  LYS141     -0.1245
     88  CA       -29.7920   44.8810   12.1270 C.3   141  LYS141      0.1561
     89  C        -29.8410   44.1010   10.8130 C.2   141  LYS141      0.2260
     90  O        -29.1290   43.1180   10.6690 O.2   141  LYS141     -0.2867
     91  CB       -28.3990   45.4820   12.3520 C.3   141  LYS141      0.0271
     92  CG       -27.9310   46.4010   11.2160 C.3   141  LYS141      0.0035
     93  CD       -26.4220   46.7460   11.3500 C.3   141  LYS141      0.0206
     94  CE       -25.8940   47.4050   10.0820 C.3   141  LYS141      0.1093
     95  NZ       -24.4160   47.6120   10.1720 N.3   141  LYS141     -0.1314
@<TRIPOS>BOND
     1    54    53   ar
     2    54    52   ar
     3    53    51   ar
     4    52    50   ar
     5    51    50   ar
     6    48    47    2
     7    50    49    1
     8     7     5    1
     9    47    46    1
    10    94    95    1
    11    94    93    1
    12     6     5    1
    13     1     2    1
    14    61    60   ar
    15    90    89    2
    16    89    88    1
    17     5     2    1
    18    49    46    1
    19    46    45    1
    20    92    93    1
    21    92    91    1
    22    55    56    1
    23     2     3    1
    24    60    62   ar
    25    60    59    1
    26    88    91    1
    27    88    87    1
    28    45    39   am
    29    56    59    1
    30    56    57    1
    31     3     4    2
    32     3     8   am
    33    39    40    2
    34    39    38    1
    35    57    58    2
    36    57    63   am
    37     8     9    1
    38    41    38    1
    39    41    42    1
    40    43    42    1
    41    38    37    1
    42    63    64    1
    43    42    44    1
    44     9    10    1
    45    69    67    1
    46    20    19    1
    47    67    64    1
    48    67    68    1
    49    37    31   am
    50    18    19    1
    51    18    17    1
    52    64    65    1
    53    10    11    2
    54    86    84   ar
    55    32    31    2
    56    66    65    2
    57    80    81    2
    58    80    79    1
    59    31    30    1
    60    16    17    1
    61    16    13    1
    62    12    13    1
    63    65    70   am
    64    84    83    1
    65    84    85   ar
    66    83    82    1
    67    13    14    1
    68    79    82    1
    69    79    78    1
    70    70    71    1
    71    28    26   am
    72    30    33    1
    73    30    29    1
    74    33    34    1
    75    14    21   am
    76    14    15    2
    77    21    22    1
    78    72    71    1
    79    72    73    2
    80    71    74    1
    81    26    27    2
    82    26    25    1
    83    25    22    1
    84    34    35   ar
    85    34    36   ar
    86    22    23    1
    87    74    75    1
    88    23    24    2
    89    75    76    2
    90    75    77   am
