@<TRIPOS>MOLECULE
tmp/3aotA07.pdb
 108 101 0 0 0
SMALL
GASTEIGER

@<TRIPOS>ATOM
      1  N        -23.7820   27.9990   25.6070 N.3    58  ILE58      -0.1245
      2  CA       -24.9110   27.2720   26.1890 C.3    58  ILE58       0.1561
      3  C        -25.1960   27.9100   27.5460 C.2    58  ILE58       0.2260
      4  O        -24.4510   27.6960   28.4930 O.2    58  ILE58      -0.2867
      5  CB       -24.6720   25.7450   26.2780 C.3    58  ILE58       0.0252
      6  CG1      -24.4480   25.1550   24.8720 C.3    58  ILE58       0.0019
      7  CG2      -25.8830   25.0380   26.9540 C.3    58  ILE58       0.0019
      8  CD1      -25.4450   25.6710   23.7930 C.3    58  ILE58       0.0001
      9  N        -28.5710   24.3620   30.7230 N.3    61  PHE61      -0.1241
     10  CA       -28.7250   22.9490   30.4400 C.3    61  PHE61       0.1605
     11  C        -29.6670   22.3510   31.4880 C.2    61  PHE61       0.2264
     12  O        -29.4070   22.4520   32.6980 O.2    61  PHE61      -0.2867
     13  CB       -27.3610   22.2560   30.4760 C.3    61  PHE61       0.0534
     14  CG       -27.4440   20.7630   30.3690 C.ar   61  PHE61      -0.0203
     15  CD1      -27.6930   19.9780   31.5010 C.ar   61  PHE61      -0.0042
     16  CD2      -27.2500   20.1320   29.1430 C.ar   61  PHE61      -0.0042
     17  CE1      -27.7840   18.5770   31.4060 C.ar   61  PHE61      -0.0003
     18  CE2      -27.3300   18.7480   29.0270 C.ar   61  PHE61      -0.0003
     19  CZ       -27.6100   17.9610   30.1570 C.ar   61  PHE61      -0.0000
     20  N        -32.1260   18.7070   32.4100 N.3    63  MET63      -0.1245
     21  CA       -32.3100   17.2720   32.1180 C.3    63  MET63       0.1570
     22  C        -33.2670   16.6030   33.1220 C.2    63  MET63       0.2261
     23  O        -33.3370   17.0290   34.2970 O.2    63  MET63      -0.2867
     24  CB       -30.9480   16.6010   32.0230 C.3    63  MET63       0.0387
     25  CG       -30.8980   15.1210   32.2950 C.3    63  MET63       0.0595
     26  SD       -29.3280   14.8380   33.1100 S.3    63  MET63      -0.1393
     27  CE       -28.2550   14.5920   31.6730 C.3    63  MET63       0.0692
     28  N        -33.7560   16.4210   27.4410 N.3    70  VAL70      -0.1245
     29  CA       -32.7730   17.4830   27.6260 C.3    70  VAL70       0.1561
     30  C        -33.3330   18.7830   27.0080 C.2    70  VAL70       0.2260
     31  O        -34.0190   18.7550   25.9660 O.2    70  VAL70      -0.2867
     32  CB       -31.4100   17.1070   27.0050 C.3    70  VAL70       0.0252
     33  CG1      -30.4020   18.2910   26.9840 C.3    70  VAL70       0.0019
     34  CG2      -30.8010   15.8830   27.6750 C.3    70  VAL70       0.0019
     35  N        -31.4580   22.5360   26.1110 N.3    72  LEU72      -0.1245
     36  CA       -30.2860   23.4110   26.0630 C.3    72  LEU72       0.1561
     37  C        -30.7400   24.7800   25.6310 C.2    72  LEU72       0.2260
     38  O        -31.3970   24.9230   24.6010 O.2    72  LEU72      -0.2867
     39  CB       -29.2770   22.9470   25.0340 C.3    72  LEU72       0.0270
     40  CG       -28.8360   21.5070   24.9190 C.3    72  LEU72       0.0019
     41  CD1      -27.9250   21.4140   23.6910 C.3    72  LEU72       0.0001
     42  CD2      -28.0650   21.1660   26.1240 C.3    72  LEU72       0.0001
     43  N        -34.3420   17.7150   23.1010 N.3   111  TYR111     -0.1241
     44  CA       -34.3310   16.3790   22.5420 C.3   111  TYR111      0.1605
     45  C        -34.5010   15.3080   23.5880 C.2   111  TYR111      0.2264
     46  O        -34.1150   15.5250   24.7670 O.2   111  TYR111     -0.2867
     47  CB       -33.0240   16.0890   21.7940 C.3   111  TYR111      0.0534
     48  CG       -31.7270   16.4640   22.4940 C.ar  111  TYR111     -0.0201
     49  CD1      -31.0450   15.5460   23.3020 C.ar  111  TYR111     -0.0009
     50  CD2      -31.1380   17.7070   22.2820 C.ar  111  TYR111     -0.0009
     51  CE1      -29.8160   15.8670   23.9060 C.ar  111  TYR111      0.0417
     52  CE2      -29.9210   18.0500   22.8920 C.ar  111  TYR111      0.0417
     53  CZ       -29.2630   17.1200   23.6950 C.ar  111  TYR111      0.1957
     54  OH       -28.0620   17.4570   24.2880 O.3   111  TYR111     -0.2866
     55  N        -33.2690   11.3760   24.6590 N.3   113  TYR113     -0.1241
     56  CA       -32.0840   10.5250   24.5580 C.3   113  TYR113      0.1605
     57  C        -32.3750    9.0880   25.0220 C.2   113  TYR113      0.2264
     58  O        -33.2910    8.8400   25.8080 O.2   113  TYR113     -0.2867
     59  CB       -30.8680   11.0720   25.3310 C.3   113  TYR113      0.0534
     60  CG       -31.0160   11.0700   26.8710 C.ar  113  TYR113     -0.0201
     61  CD1      -30.7660    9.9100   27.6330 C.ar  113  TYR113     -0.0009
     62  CD2      -31.4020   12.2230   27.5380 C.ar  113  TYR113     -0.0009
     63  CE1      -30.9090    9.9200   29.0370 C.ar  113  TYR113      0.0417
     64  CE2      -31.5480   12.2600   28.9290 C.ar  113  TYR113      0.0417
     65  CZ       -31.3020   11.1090   29.6750 C.ar  113  TYR113      0.1957
     66  OH       -31.4630   11.1710   31.0320 O.3   113  TYR113     -0.2866
     67  N        -24.7810    8.0720   25.2590 N.3   125  PHE125     -0.1241
     68  CA       -26.0390    8.7660   24.9650 C.3   125  PHE125      0.1605
     69  C        -26.3620    8.6240   23.4590 C.2   125  PHE125      0.2264
     70  O        -25.4800    8.7790   22.6170 O.2   125  PHE125     -0.2867
     71  CB       -25.9480   10.2590   25.3070 C.3   125  PHE125      0.0534
     72  CG       -25.9890   10.5760   26.7880 C.ar  125  PHE125     -0.0203
     73  CD1      -27.1290   10.3300   27.5410 C.ar  125  PHE125     -0.0042
     74  CD2      -24.8940   11.1850   27.4100 C.ar  125  PHE125     -0.0042
     75  CE1      -27.1660   10.6520   28.9090 C.ar  125  PHE125     -0.0003
     76  CE2      -24.9180   11.5160   28.7720 C.ar  125  PHE125     -0.0003
     77  CZ       -26.0510   11.2530   29.5210 C.ar  125  PHE125     -0.0000
     78  N        -28.7430   10.5410   20.9510 N.3   127  VAL127     -0.1245
     79  CA       -29.5360   11.7680   20.8930 C.3   127  VAL127      0.1561
     80  C        -30.6000   11.6460   19.8000 C.2   127  VAL127      0.2260
     81  O        -30.2740   11.4800   18.6310 O.2   127  VAL127     -0.2867
     82  CB       -28.6230   13.0360   20.6870 C.3   127  VAL127      0.0252
     83  CG1      -29.4440   14.3040   20.6040 C.3   127  VAL127      0.0019
     84  CG2      -27.5760   13.1630   21.8290 C.3   127  VAL127      0.0019
     85  N        -23.1480   17.4170   18.5560 N.3   191  ILE191     -0.1245
     86  CA       -23.3820   16.8250   19.8610 C.3   191  ILE191      0.1561
     87  C        -23.7030   15.3100   19.6940 C.2   191  ILE191      0.2260
     88  O        -23.1610   14.4570   20.4010 O.2   191  ILE191     -0.2867
     89  CB       -24.5520   17.5410   20.6010 C.3   191  ILE191      0.0252
     90  CG1      -24.1540   18.9720   20.9510 C.3   191  ILE191      0.0019
     91  CG2      -24.9450   16.7810   21.8860 C.3   191  ILE191      0.0019
     92  CD1      -25.2870   19.7830   21.5300 C.3   191  ILE191      0.0001
     93  N        -21.2950   12.2020   20.8550 N.3   195  ALA195     -0.1245
     94  CA       -21.8650   11.3220   21.8920 C.3   195  ALA195      0.1562
     95  C        -21.8370    9.8310   21.5310 C.2   195  ALA195      0.2260
     96  O        -22.0160    8.9640   22.4090 O.2   195  ALA195     -0.2867
     97  CB       -23.2840   11.7480   22.2630 C.3   195  ALA195      0.0290
     98  N        -18.8300   14.6240   31.0320 N.3   203  PHE203     -0.1241
     99  CA       -19.8470   15.6640   31.1950 C.3   203  PHE203      0.1605
    100  C        -19.2450   17.0460   30.9670 C.2   203  PHE203      0.2264
    101  O        -19.9590   17.9920   30.6380 O.2   203  PHE203     -0.2867
    102  CB       -20.4720   15.5940   32.5950 C.3   203  PHE203      0.0534
    103  CG       -21.9710   15.7720   32.6070 C.ar  203  PHE203     -0.0203
    104  CD1      -22.5520   16.9960   32.2500 C.ar  203  PHE203     -0.0042
    105  CD2      -22.8080   14.7120   32.9800 C.ar  203  PHE203     -0.0042
    106  CE1      -23.9450   17.1580   32.2560 C.ar  203  PHE203     -0.0003
    107  CE2      -24.1980   14.8620   32.9900 C.ar  203  PHE203     -0.0003
    108  CZ       -24.7680   16.0880   32.6300 C.ar  203  PHE203     -0.0000
@<TRIPOS>BOND
     1    85    86    1
     2    81    80    2
     3    87    86    1
     4    87    88    2
     5    80    79    1
     6    86    89    1
     7    89    90    1
     8    89    91    1
     9    83    82    1
    10    82    79    1
    11    82    84    1
    12    93    94    1
    13    79    78    1
    14    90    92    1
    15    95    94    1
    16    95    96    2
    17    47    48    1
    18    47    44    1
    19    94    97    1
    20    50    48   ar
    21    50    52   ar
    22    48    49   ar
    23    44    43    1
    24    44    45    1
    25    70    69    2
    26    52    53   ar
    27    49    51   ar
    28    69    68    1
    29    45    46    2
    30    41    40    1
    31    53    51   ar
    32    53    54    1
    33     8     6    1
    34    56    55    1
    35    56    57    1
    36    56    59    1
    37    38    37    2
    38     6     5    1
    39    40    39    1
    40    40    42    1
    41    68    67    1
    42    68    71    1
    43    57    58    2
    44    39    36    1
    45    71    72    1
    46    59    60    1
    47     1     2    1
    48    37    36    1
    49    31    30    2
    50    36    35    1
    51     2     5    1
    52     2     3    1
    53     5     7    1
    54    72    74   ar
    55    72    73   ar
    56    60    62   ar
    57    60    61   ar
    58    33    32    1
    59    32    29    1
    60    32    34    1
    61    30    29    1
    62    74    76   ar
    63    28    29    1
    64    62    64   ar
    65    73    75   ar
    66     3     4    2
    67    61    63   ar
    68    76    77   ar
    69    75    77   ar
    70    64    65   ar
    71    18    16   ar
    72    18    19   ar
    73    63    65   ar
    74    16    14   ar
    75    65    66    1
    76    19    17   ar
    77    14    13    1
    78    14    15   ar
    79    10    13    1
    80    10     9    1
    81    10    11    1
    82   101   100    2
    83   100    99    1
    84    98    99    1
    85    99   102    1
    86    17    15   ar
    87    11    12    2
    88    27    26    1
    89    24    21    1
    90    24    25    1
    91    21    20    1
    92    21    22    1
    93   104   106   ar
    94   104   103   ar
    95   106   108   ar
    96    25    26    1
    97   102   103    1
    98   103   105   ar
    99   108   107   ar
   100   105   107   ar
   101    22    23    2
