@<TRIPOS>MOLECULE
tmp/3aotA03.pdb
 111 104 0 0 0
SMALL
GASTEIGER

@<TRIPOS>ATOM
      1  N         -8.5830   25.1580   16.6970 N.3     7  PHE7       -0.1241
      2  CA        -9.9970   25.3940   17.0040 C.3     7  PHE7        0.1605
      3  C        -10.7240   25.9540   15.8000 C.2     7  PHE7        0.2264
      4  O        -11.8010   25.4780   15.4450 O.2     7  PHE7       -0.2867
      5  CB       -10.1500   26.3510   18.1850 C.3     7  PHE7        0.0534
      6  CG       -11.5780   26.6780   18.5180 C.ar    7  PHE7       -0.0203
      7  CD1      -12.4120   25.7190   19.1040 C.ar    7  PHE7       -0.0042
      8  CD2      -12.0930   27.9490   18.2540 C.ar    7  PHE7       -0.0042
      9  CE1      -13.7460   26.0210   19.4140 C.ar    7  PHE7       -0.0003
     10  CE2      -13.4180   28.2650   18.5680 C.ar    7  PHE7       -0.0003
     11  CZ       -14.2440   27.3010   19.1500 C.ar    7  PHE7       -0.0000
     12  N        -11.0790   23.3270   13.1120 N.3    10  LYS10      -0.1231
     13  CA       -12.2040   22.4640   13.4750 C.3    10  LYS10       0.1693
     14  C        -13.5840   23.1310   13.1940 C.2    10  LYS10       0.2592
     15  O        -14.4210   22.5200   12.5320 O.2    10  LYS10      -0.2718
     16  CB       -12.0800   21.9580   14.9180 C.3    10  LYS10       0.0285
     17  CG       -10.9350   20.9460   15.1140 C.3    10  LYS10       0.0035
     18  CD       -10.8110   20.4560   16.5670 C.3    10  LYS10       0.0206
     19  CE       -10.0510   21.4350   17.4500 C.3    10  LYS10       0.1093
     20  NZ       -10.0750   20.9910   18.8780 N.3    10  LYS10      -0.1314
     21  N        -13.7800   24.3820   13.6340 N.am   11  THR11      -0.1953
     22  CA       -15.0440   25.0990   13.3900 C.3    11  THR11       0.1897
     23  C        -15.2810   25.3340   11.9030 C.2    11  THR11       0.2313
     24  O        -16.4180   25.2360   11.4330 O.2    11  THR11      -0.2863
     25  CB       -15.1800   26.4370   14.1660 C.3    11  THR11       0.1794
     26  OG1      -14.3240   27.4390   13.5990 O.3    11  THR11      -0.2208
     27  CG2      -14.8740   26.2660   15.6370 C.3    11  THR11       0.0378
     28  N        -14.5930   17.9670   11.1930 N.3    15  ILE15      -0.1245
     29  CA       -13.6580   16.8520   11.3090 C.3    15  ILE15       0.1561
     30  C        -14.3220   15.6420   10.6440 C.2    15  ILE15       0.2260
     31  O        -15.0300   14.8830   11.3120 O.2    15  ILE15      -0.2867
     32  CB       -13.3010   16.5040   12.7840 C.3    15  ILE15       0.0252
     33  CG1      -12.9660   17.7650   13.6060 C.3    15  ILE15       0.0019
     34  CG2      -12.1480   15.4660   12.8100 C.3    15  ILE15       0.0019
     35  CD1      -13.0600   17.5990   15.1300 C.3    15  ILE15       0.0001
     36  N        -17.9760   15.2480   12.1150 N.3    20  ILE20      -0.1231
     37  CA       -18.1930   16.5300   12.7800 C.3    20  ILE20       0.1692
     38  C        -18.2530   17.5860   11.6750 C.2    20  ILE20       0.2592
     39  O        -17.3250   17.7010   10.8730 O.2    20  ILE20      -0.2718
     40  CB       -17.0630   16.8500   13.7770 C.3    20  ILE20       0.0266
     41  CG1      -17.0560   15.8410   14.9360 C.3    20  ILE20       0.0019
     42  CG2      -17.1450   18.2830   14.2750 C.3    20  ILE20       0.0020
     43  CD1      -18.1250   16.0480   16.0030 C.3    20  ILE20       0.0001
     44  N        -19.3600   18.3290   11.6210 N.am   21  TRP21      -0.1976
     45  CA       -19.5970   19.2620   10.5360 C.3    21  TRP21       0.1640
     46  C        -19.0160   20.6310   10.9000 C.2    21  TRP21       0.2290
     47  O        -18.8000   20.9120   12.0630 O.2    21  TRP21      -0.2864
     48  CB       -21.0950   19.4230   10.2800 C.3    21  TRP21       0.0576
     49  CG       -21.8600   18.1870    9.8530 C.ar   21  TRP21       0.0006
     50  CD1      -21.3520   16.9810    9.4770 C.ar   21  TRP21       0.0946
     51  CD2      -23.2910   18.0720    9.7490 C.ar   21  TRP21       0.0152
     52  NE1      -22.3780   16.1180    9.1520 N.ar   21  TRP21      -0.2442
     53  CE2      -23.5750   16.7650    9.3150 C.ar   21  TRP21       0.0810
     54  CE3      -24.3550   18.9530    9.9800 C.ar   21  TRP21       0.0012
     55  CZ2      -24.8860   16.3120    9.1130 C.ar   21  TRP21       0.0191
     56  CZ3      -25.6510   18.5010    9.7730 C.ar   21  TRP21       0.0001
     57  CH2      -25.9020   17.1920    9.3440 C.ar   21  TRP21       0.0015
     58  N        -19.0640   24.5670   11.8380 N.3    23  ILE23      -0.1245
     59  CA       -20.0250   25.4880   12.4520 C.3    23  ILE23       0.1561
     60  C        -19.7380   26.9860   12.2830 C.2    23  ILE23       0.2260
     61  O        -20.6040   27.8280   12.6150 O.2    23  ILE23      -0.2867
     62  CB       -20.2560   25.1810   13.9770 C.3    23  ILE23       0.0252
     63  CG1      -18.9810   25.4230   14.7910 C.3    23  ILE23       0.0019
     64  CG2      -20.8180   23.7610   14.1560 C.3    23  ILE23       0.0019
     65  CD1      -19.2230   25.6360   16.3400 C.3    23  ILE23       0.0001
     66  N        -20.5910   30.9390   20.5530 N.3    56  GLN56      -0.1245
     67  CA       -21.9110   30.7520   21.1660 C.3    56  GLN56       0.1566
     68  C        -21.7430   30.2020   22.5710 C.2    56  GLN56       0.2260
     69  O        -20.7440   29.5520   22.8920 O.2    56  GLN56      -0.2867
     70  CB       -22.8540   29.8390   20.3450 C.3    56  GLN56       0.0367
     71  CG       -22.4560   28.3740   20.3260 C.3    56  GLN56       0.0905
     72  CD       -23.6090   27.4130   20.5870 C.2    56  GLN56       0.2608
     73  OE1      -23.4050   26.2060   20.5310 O.2    56  GLN56      -0.2717
     74  NE2      -24.8110   27.9330   20.9070 N.am   56  GLN56      -0.0878
     75  N        -23.7820   27.9990   25.6070 N.3    58  ILE58      -0.1245
     76  CA       -24.9110   27.2720   26.1890 C.3    58  ILE58       0.1561
     77  C        -25.1960   27.9100   27.5460 C.2    58  ILE58       0.2260
     78  O        -24.4510   27.6960   28.4930 O.2    58  ILE58      -0.2867
     79  CB       -24.6720   25.7450   26.2780 C.3    58  ILE58       0.0252
     80  CG1      -24.4480   25.1550   24.8720 C.3    58  ILE58       0.0019
     81  CG2      -25.8830   25.0380   26.9540 C.3    58  ILE58       0.0019
     82  CD1      -25.4450   25.6710   23.7930 C.3    58  ILE58       0.0001
     83  N        -25.0060   22.2090   14.9080 N.3   187  VAL187     -0.1245
     84  CA       -24.5660   22.1900   16.3190 C.3   187  VAL187      0.1561
     85  C        -25.0160   20.9160   17.0100 C.2   187  VAL187      0.2260
     86  O        -24.1990   20.1940   17.5910 O.2   187  VAL187     -0.2867
     87  CB       -25.0640   23.4290   17.0770 C.3   187  VAL187      0.0252
     88  CG1      -24.6640   23.3830   18.5830 C.3   187  VAL187      0.0019
     89  CG2      -24.4930   24.6960   16.4240 C.3   187  VAL187      0.0019
     90  N        -23.4740   17.7980   15.7840 N.3   190  ASN190     -0.1225
     91  CA       -22.1410   17.5810   16.3510 C.3   190  ASN190      0.1785
     92  C        -22.1720   16.9980   17.7680 C.2   190  ASN190      0.2597
     93  O        -21.3100   16.1910   18.1220 O.2   190  ASN190     -0.2718
     94  CB       -21.2410   18.8300   16.2750 C.3   190  ASN190      0.1169
     95  CG       -20.7650   19.1180   14.8650 C.2   190  ASN190      0.2627
     96  OD1      -20.9010   18.2900   13.9660 O.2   190  ASN190     -0.2716
     97  ND2      -20.2020   20.3060   14.6650 N.am  190  ASN190     -0.0877
     98  N        -23.1480   17.4170   18.5560 N.am  191  ILE191     -0.1980
     99  CA       -23.3820   16.8250   19.8610 C.3   191  ILE191      0.1595
    100  C        -23.7030   15.3100   19.6940 C.2   191  ILE191      0.2287
    101  O        -23.1610   14.4570   20.4010 O.2   191  ILE191     -0.2864
    102  CB       -24.5520   17.5410   20.6010 C.3   191  ILE191      0.0276
    103  CG1      -24.1540   18.9720   20.9510 C.3   191  ILE191      0.0022
    104  CG2      -24.9450   16.7810   21.8860 C.3   191  ILE191      0.0022
    105  CD1      -25.2870   19.7830   21.5300 C.3   191  ILE191      0.0001
    106  N        -20.5550   13.3670   18.5050 N.3   194  SER194     -0.1217
    107  CA       -19.5170   13.2230   19.4900 C.3   194  SER194      0.1889
    108  C        -19.9750   12.3290   20.6540 C.2   194  SER194      0.2288
    109  O        -19.1350   11.7390   21.3240 O.2   194  SER194     -0.2866
    110  CB       -19.0250   14.5850   19.9520 C.3   194  SER194      0.2089
    111  OG       -19.8850   15.0660   20.9500 O.3   194  SER194     -0.2183
@<TRIPOS>BOND
     1    55    53   ar
     2    55    57   ar
     3    52    53   ar
     4    52    50   ar
     5    53    51   ar
     6    57    56   ar
     7    50    49   ar
     8    51    49   ar
     9    51    54   ar
    10    56    54   ar
    11    49    48    1
    12    48    45    1
    13    45    46    1
    14    45    44    1
    15    30    29    1
    16    30    31    2
    17    39    38    2
    18    46    47    2
    19    28    29    1
    20    29    32    1
    21    24    23    2
    22    44    38   am
    23    38    37    1
    24    58    59    1
    25    23    22    1
    26    36    37    1
    27    60    59    1
    28    60    61    2
    29    59    62    1
    30    15    14    2
    31    37    40    1
    32    32    34    1
    33    32    33    1
    34    12    13    1
    35    14    13    1
    36    14    21   am
    37    22    21    1
    38    22    25    1
    39    13    16    1
    40    26    25    1
    41    33    35    1
    42    40    42    1
    43    40    41    1
    44    96    95    2
    45    62    64    1
    46    62    63    1
    47    25    27    1
    48    97    95   am
    49    63    65    1
    50    95    94    1
    51    83    84    1
    52    16    17    1
    53    41    43    1
    54    17    18    1
    55     4     3    2
    56    90    91    1
    57     3     2    1
    58    94    91    1
    59    84    85    1
    60    84    87    1
    61    91    92    1
    62    89    87    1
    63    18    19    1
    64     1     2    1
    65     2     5    1
    66    85    86    2
    67    87    88    1
    68    19    20    1
    69    92    93    2
    70    92    98   am
    71     5     6    1
    72     8     6   ar
    73     8    10   ar
    74   106   107    1
    75     6     7   ar
    76    98    99    1
    77    10    11   ar
    78     7     9   ar
    79    11     9   ar
    80   107   110    1
    81   107   108    1
    82   100    99    1
    83   100   101    2
    84    99   102    1
    85   110   111    1
    86    71    70    1
    87    71    72    1
    88    70    67    1
    89    73    72    2
    90    66    67    1
    91    72    74   am
    92   102   103    1
    93   102   104    1
    94   108   109    2
    95   103   105    1
    96    67    68    1
    97    68    69    2
    98    82    80    1
    99    80    79    1
   100    75    76    1
   101    76    79    1
   102    76    77    1
   103    79    81    1
   104    77    78    2
