@<TRIPOS>MOLECULE
tmp/3aowA01.pdb
 83 77 0 0 0
SMALL
GASTEIGER

@<TRIPOS>ATOM
      1  N         10.0900   21.8480   29.9020 N.3    23  ARG23      -0.1245
      2  CA         8.8770   21.1170   30.2460 C.3    23  ARG23       0.1563
      3  C          8.2100   21.7110   31.4870 C.2    23  ARG23       0.2260
      4  O          6.9920   21.8190   31.5170 O.2    23  ARG23      -0.2867
      5  CB         9.1230   19.6040   30.3950 C.3    23  ARG23       0.0307
      6  CG         8.0140   18.8510   31.1950 C.3    23  ARG23       0.0489
      7  CD         6.5370   18.8700   30.5980 C.3    23  ARG23       0.2205
      8  NE         6.2970   17.8720   29.5280 N.pl3  23  ARG23      -0.0865
      9  CZ         6.2990   16.5380   29.6800 C.cat  23  ARG23       0.5346
     10  NH1        6.5330   15.9970   30.8760 N.pl3  23  ARG23       0.1354
     11  NH2        6.0780   15.7380   28.6230 N.pl3  23  ARG23       0.1354
     12  N          1.4840   17.4470   23.5530 N.3    40  GLY40      -0.1210
     13  CA         1.6500   16.1690   22.8660 C.3    40  GLY40       0.1956
     14  C          0.5420   15.2250   23.2030 C.2    40  GLY40       0.2611
     15  O          0.7260   14.0160   23.0600 O.2    40  GLY40      -0.2717
     16  N         -0.6270   15.7490   23.5790 N.am   41  LEU41      -0.1979
     17  CA        -1.7410   14.8600   23.9680 C.3    41  LEU41       0.1596
     18  C         -2.7970   14.6560   22.9030 C.2    41  LEU41       0.2287
     19  O         -3.0990   15.5390   22.1340 O.2    41  LEU41      -0.2864
     20  CB        -2.4410   15.5240   25.1660 C.3    41  LEU41       0.0297
     21  CG        -1.4860   15.7260   26.3630 C.3    41  LEU41       0.0022
     22  CD1       -2.3310   16.2660   27.4980 C.3    41  LEU41       0.0001
     23  CD2       -0.6920   14.5500   26.8400 C.3    41  LEU41       0.0001
     24  N          6.4920    3.6710   25.8670 N.3   106  GLN106     -0.1245
     25  CA         7.5970    4.1640   26.6530 C.3   106  GLN106      0.1566
     26  C          8.2900    2.9860   27.3500 C.2   106  GLN106      0.2260
     27  O          9.5360    2.9940   27.3700 O.2   106  GLN106     -0.2867
     28  CB         7.1020    5.1860   27.7030 C.3   106  GLN106      0.0367
     29  CG         8.3220    5.7820   28.3960 C.3   106  GLN106      0.0905
     30  CD         9.1110    6.6710   27.4580 C.2   106  GLN106      0.2608
     31  OE1        8.5960    7.2080   26.4470 O.2   106  GLN106     -0.2717
     32  NE2       10.4300    6.7750   27.7460 N.am  106  GLN106     -0.0878
     33  N         11.9600   11.5130   18.5980 N.3   130  TYR130     -0.1227
     34  CA        11.0150   11.5640   19.7670 C.3   130  TYR130      0.1736
     35  C         11.8330   11.7460   21.0120 C.2   130  TYR130      0.2595
     36  O         12.6930   10.9500   21.3880 O.2   130  TYR130     -0.2718
     37  CB        10.2110   10.2430   19.7890 C.3   130  TYR130      0.0548
     38  CG         9.2590   10.0660   20.8890 C.ar  130  TYR130     -0.0200
     39  CD1        8.3650   11.1200   21.2550 C.ar  130  TYR130     -0.0009
     40  CD2        9.1890    8.8670   21.5760 C.ar  130  TYR130     -0.0009
     41  CE1        7.4310   10.8680   22.2700 C.ar  130  TYR130      0.0417
     42  CE2        8.2210    8.6370   22.5810 C.ar  130  TYR130      0.0417
     43  CZ         7.3320    9.6510   22.8880 C.ar  130  TYR130      0.1957
     44  OH         6.3710    9.4860   23.8870 O.3   130  TYR130     -0.2866
     45  N         11.5580   12.8580   21.6950 N.am  131  LEU131     -0.1966
     46  CA        12.3890   13.1180   22.8960 C.3   131  LEU131      0.1728
     47  C         12.2830   12.0650   23.9870 C.2   131  LEU131      0.2616
     48  O         13.3080   11.7170   24.5890 O.2   131  LEU131     -0.2715
     49  CB        12.1240   14.5370   23.4450 C.3   131  LEU131      0.0311
     50  CG        12.6700   14.7840   24.8700 C.3   131  LEU131      0.0022
     51  CD1       14.2630   14.5850   24.9800 C.3   131  LEU131      0.0001
     52  CD2       12.0900   16.1570   25.4230 C.3   131  LEU131      0.0001
     53  N         11.1290   11.4110   24.1720 N.am  132  ALA132     -0.1977
     54  CA        11.0490   10.4240   25.2170 C.3   132  ALA132      0.1597
     55  C         11.8660    9.1860   24.9010 C.2   132  ALA132      0.2287
     56  O         12.2610    8.4620   25.8480 O.2   132  ALA132     -0.2864
     57  CB         9.5960   10.0720   25.5310 C.3   132  ALA132      0.0319
     58  N         15.2100    9.9340   26.0610 N.3   135  GLN135     -0.1245
     59  CA        15.1840    9.8330   27.5810 C.3   135  GLN135      0.1566
     60  C         15.2810    8.3800   28.0030 C.2   135  GLN135      0.2260
     61  O         15.9890    8.1030   29.0020 O.2   135  GLN135     -0.2867
     62  CB        13.9420   10.5060   28.1650 C.3   135  GLN135      0.0367
     63  CG        13.9060   12.0080   27.9020 C.3   135  GLN135      0.0905
     64  CD        12.5750   12.5940   28.3880 C.2   135  GLN135      0.2608
     65  OE1       11.4910   12.0820   28.0570 O.2   135  GLN135     -0.2717
     66  NE2       12.6490   13.6460   29.2080 N.am  135  GLN135     -0.0878
     67  N          6.5570   12.0390   15.3300 N.3   184  ASN184     -0.1240
     68  CA         6.7050   13.0260   16.4170 C.3   184  ASN184      0.1653
     69  C          8.2240   13.3340   16.5910 C.2   184  ASN184      0.2266
     70  O          8.9650   12.3940   16.9680 O.2   184  ASN184     -0.2867
     71  CB         6.0790   12.3880   17.6500 C.3   184  ASN184      0.1155
     72  CG         6.2090   13.3110   18.9120 C.2   184  ASN184      0.2627
     73  OD1        6.7410   14.4580   18.7810 O.2   184  ASN184     -0.2716
     74  ND2        5.7790   12.8410   20.0610 N.am  184  ASN184     -0.0877
     75  N         -3.1960    6.6300   21.2230 N.3   245  LYS245     -0.1245
     76  CA        -3.9180    7.5940   20.3840 C.3   245  LYS245      0.1561
     77  C         -5.0960    6.9640   19.6320 C.2   245  LYS245      0.2260
     78  O         -5.8900    7.7120   19.0380 O.2   245  LYS245     -0.2867
     79  CB        -2.9800    8.3280   19.4240 C.3   245  LYS245      0.0271
     80  CG        -1.8810    9.1960   20.1010 C.3   245  LYS245      0.0035
     81  CD        -0.5790    8.3500   20.2750 C.3   245  LYS245      0.0206
     82  CE         0.3400    9.2310   21.1820 C.3   245  LYS245      0.1093
     83  NZ         1.6210    8.4340   21.2390 N.3   245  LYS245     -0.1314
@<TRIPOS>BOND
     1    67    68    1
     2    68    69    1
     3    68    71    1
     4    69    70    2
     5    71    72    1
     6    33    34    1
     7    73    72    2
     8    72    74   am
     9    78    77    2
    10    79    80    1
    11    79    76    1
    12    77    76    1
    13    34    37    1
    14    34    35    1
    15    37    38    1
    16    80    81    1
    17    81    82    1
    18    76    75    1
    19    38    39   ar
    20    38    40   ar
    21    35    36    2
    22    35    45   am
    23    82    83    1
    24    39    41   ar
    25    40    42   ar
    26    45    46    1
    27    19    18    2
    28    41    43   ar
    29    42    43   ar
    30    13    14    1
    31    13    12    1
    32    43    44    1
    33    46    49    1
    34    46    47    1
    35    18    17    1
    36    15    14    2
    37    14    16   am
    38    49    50    1
    39    16    17    1
    40    17    20    1
    41    47    53   am
    42    47    48    2
    43    53    54    1
    44    50    51    1
    45    50    52    1
    46    55    54    1
    47    55    56    2
    48    20    21    1
    49    54    57    1
    50    24    25    1
    51    58    59    1
    52    21    23    1
    53    21    22    1
    54    31    30    2
    55    25    26    1
    56    25    28    1
    57    26    27    2
    58    30    32   am
    59    30    29    1
    60    59    60    1
    61    59    62    1
    62    28    29    1
    63    63    62    1
    64    63    64    1
    65    60    61    2
    66    65    64    2
    67    64    66   am
    68    11     9    1
    69     8     9    2
    70     8     7    1
    71     9    10    1
    72     1     2    1
    73     2     5    1
    74     2     3    1
    75     5     6    1
    76     7     6    1
    77     3     4    2
