@<TRIPOS>MOLECULE
tmp/3aoxA00.pdb
 171 159 0 0 0
SMALL
GASTEIGER

@<TRIPOS>ATOM
      1  N        -29.7490   13.9920    0.4060 N.3    35  ARG35      -0.1245
      2  CA       -28.9190   12.9490    1.0110 C.3    35  ARG35       0.1563
      3  C        -27.4680   13.0970    0.5730 C.2    35  ARG35       0.2260
      4  O        -27.1840   13.7160   -0.4550 O.2    35  ARG35      -0.2867
      5  CB       -29.4190   11.5600    0.6020 C.3    35  ARG35       0.0307
      6  CG       -29.3520   11.2940   -0.8860 C.3    35  ARG35       0.0489
      7  CD       -29.4470    9.7980   -1.2010 C.3    35  ARG35       0.2205
      8  NE       -29.8670    9.5820   -2.5770 N.pl3  35  ARG35      -0.0865
      9  CZ       -29.6460    8.4740   -3.2750 C.cat  35  ARG35       0.5346
     10  NH1      -30.0800    8.3920   -4.5250 N.pl3  35  ARG35       0.1354
     11  NH2      -28.9860    7.4600   -2.7320 N.pl3  35  ARG35       0.1354
     12  N        -24.1570   11.3170   -0.9430 N.3    37  LEU37      -0.1231
     13  CA       -23.9450   10.2480   -1.9270 C.3    37  LEU37       0.1693
     14  C        -22.5280    9.6830   -1.8590 C.2    37  LEU37       0.2592
     15  O        -22.3520    8.4810   -1.6690 O.2    37  LEU37      -0.2718
     16  CB       -24.1890   10.7680   -3.3310 C.3    37  LEU37       0.0284
     17  CG       -25.5710   11.2650   -3.7160 C.3    37  LEU37       0.0019
     18  CD1      -25.4780   12.0010   -5.0630 C.3    37  LEU37       0.0001
     19  CD2      -26.5690   10.0970   -3.7520 C.3    37  LEU37       0.0001
     20  N        -21.5300   10.5600   -2.0260 N.am   38  GLY38      -0.1957
     21  CA       -20.1130   10.1640   -2.0790 C.3    38  GLY38       0.1869
     22  C        -19.2100   11.0440   -1.2280 C.2    38  GLY38       0.2309
     23  O        -19.0890   12.2520   -1.4620 O.2    38  GLY38      -0.2863
     24  N        -20.2670   14.8650   -2.0300 N.3    41  VAL41      -0.1245
     25  CA       -21.2910   15.0220   -3.0660 C.3    41  VAL41       0.1561
     26  C        -22.6440   14.6180   -2.4580 C.2    41  VAL41       0.2260
     27  O        -22.7800   13.5580   -1.8300 O.2    41  VAL41      -0.2867
     28  CB       -21.0350   14.1730   -4.3530 C.3    41  VAL41       0.0252
     29  CG1      -22.0920   14.4930   -5.4150 C.3    41  VAL41       0.0019
     30  CG2      -19.6300   14.4160   -4.9030 C.3    41  VAL41       0.0019
     31  N        -27.0890   14.5880   -3.1170 N.3    43  GLU43      -0.1245
     32  CA       -28.2250   14.7070   -3.9990 C.3    43  GLU43       0.1567
     33  C        -28.9970   15.8890   -3.4700 C.2    43  GLU43       0.2260
     34  O        -29.1840   16.0230   -2.2540 O.2    43  GLU43      -0.2867
     35  CB       -29.1110   13.4590   -3.9710 C.3    43  GLU43       0.0388
     36  CG       -30.3580   13.6040   -4.8580 C.3    43  GLU43       0.1160
     37  CD       -31.2440   12.3690   -4.8850 C.2    43  GLU43       0.3649
     38  OE1      -30.9090   11.3500   -4.2350 O.co2  43  GLU43      -0.2457
     39  OE2      -32.2880   12.4280   -5.5680 O.co2  43  GLU43      -0.2457
     40  N        -26.8750   16.8190   -8.5390 N.3    52  ALA52      -0.1245
     41  CA       -25.7590   16.5000   -7.6670 C.3    52  ALA52       0.1562
     42  C        -25.1180   17.8180   -7.1920 C.2    52  ALA52       0.2260
     43  O        -25.0060   18.7900   -7.9560 O.2    52  ALA52      -0.2867
     44  CB       -24.7260   15.6060   -8.3730 C.3    52  ALA52       0.0290
     45  N        -21.7830   19.4130   -5.3100 N.3    54  LYS54      -0.1245
     46  CA       -20.4470   19.4040   -4.7210 C.3    54  LYS54       0.1561
     47  C        -20.3130   20.5890   -3.8100 C.2    54  LYS54       0.2260
     48  O        -20.7530   21.6880   -4.1370 O.2    54  LYS54      -0.2867
     49  CB       -19.3580   19.4920   -5.7930 C.3    54  LYS54       0.0271
     50  CG       -19.2410   18.2690   -6.6470 C.3    54  LYS54       0.0035
     51  CD       -17.9580   18.3760   -7.4700 C.3    54  LYS54       0.0206
     52  CE       -17.5350   17.0660   -8.0270 C.3    54  LYS54       0.1093
     53  NZ       -16.1400   17.1820   -8.5460 N.3    54  LYS54      -0.1314
     54  N        -12.8330   24.7580  -10.9880 N.3    71  GLU71      -0.1245
     55  CA       -13.6670   23.5890  -11.3220 C.3    71  GLU71       0.1567
     56  C        -15.0230   24.0350  -11.8900 C.2    71  GLU71       0.2260
     57  O        -15.4780   23.4970  -12.9110 O.2    71  GLU71      -0.2867
     58  CB       -13.8770   22.6780  -10.0860 C.3    71  GLU71       0.0388
     59  CG       -14.9990   21.6710  -10.2360 C.3    71  GLU71       0.1160
     60  CD       -15.0560   20.6180   -9.1430 C.2    71  GLU71       0.3649
     61  OE1      -14.4440   20.7920   -8.0640 O.co2  71  GLU71      -0.2457
     62  OE2      -15.7460   19.6060   -9.3820 O.co2  71  GLU71      -0.2457
     63  N        -16.2380   23.2450  -15.8460 N.3    75  ILE75      -0.1245
     64  CA       -17.4360   22.4300  -16.1490 C.3    75  ILE75       0.1561
     65  C        -18.5390   23.2450  -16.8260 C.2    75  ILE75       0.2260
     66  O        -19.1950   22.7560  -17.7560 O.2    75  ILE75      -0.2867
     67  CB       -17.9580   21.6550  -14.9100 C.3    75  ILE75       0.0252
     68  CG1      -18.9550   20.5620  -15.3350 C.3    75  ILE75       0.0019
     69  CG2      -18.5870   22.5720  -13.8550 C.3    75  ILE75       0.0019
     70  CD1      -18.2840   19.3720  -15.9410 C.3    75  ILE75       0.0001
     71  N        -20.8580   15.7100  -18.0940 N.3    84  VAL84      -0.1245
     72  CA       -21.8630   16.1150  -17.1130 C.3    84  VAL84       0.1561
     73  C        -22.1520   17.6200  -17.2130 C.2    84  VAL84       0.2260
     74  O        -21.2310   18.4150  -17.3470 O.2    84  VAL84      -0.2867
     75  CB       -21.3770   15.7600  -15.7010 C.3    84  VAL84       0.0252
     76  CG1      -22.3920   16.1570  -14.6590 C.3    84  VAL84       0.0019
     77  CG2      -21.0940   14.2710  -15.6130 C.3    84  VAL84       0.0019
     78  N        -24.7090   20.1660  -10.3300 N.3   100  LEU100     -0.1231
     79  CA       -24.3890   19.3630  -11.4900 C.3   100  LEU100      0.1693
     80  C        -25.5260   18.4240  -11.8190 C.2   100  LEU100      0.2592
     81  O        -26.3900   18.1430  -10.9820 O.2   100  LEU100     -0.2718
     82  CB       -23.1180   18.5740  -11.2390 C.3   100  LEU100      0.0284
     83  CG       -21.9290   19.4980  -10.9680 C.3   100  LEU100      0.0019
     84  CD1      -21.0100   18.9200   -9.9120 C.3   100  LEU100      0.0001
     85  CD2      -21.2090   19.8300  -12.2550 C.3   100  LEU100      0.0001
     86  N        -25.5120   17.9640  -13.0630 N.am  101  GLU101     -0.1966
     87  CA       -26.3960   16.9030  -13.5590 C.3   101  GLU101      0.1733
     88  C        -26.3330   15.6890  -12.6180 C.2   101  GLU101      0.2616
     89  O        -25.2530   15.2030  -12.3280 O.2   101  GLU101     -0.2715
     90  CB       -25.9270   16.5060  -14.9550 C.3   101  GLU101      0.0429
     91  CG       -26.7460   15.4110  -15.6210 C.3   101  GLU101      0.1163
     92  CD       -26.3640   15.1420  -17.0590 C.2   101  GLU101      0.3649
     93  OE1      -25.4150   15.7790  -17.5480 O.co2 101  GLU101     -0.2457
     94  OE2      -27.0060   14.2490  -17.6760 O.co2 101  GLU101     -0.2457
     95  N        -27.4860   15.2400  -12.1200 N.am  102  LEU102     -0.1963
     96  CA       -27.5330   14.0500  -11.2580 C.3   102  LEU102      0.1728
     97  C        -27.3260   12.8120  -12.1390 C.2   102  LEU102      0.2616
     98  O        -27.9780   12.6570  -13.1790 O.2   102  LEU102     -0.2715
     99  CB       -28.8400   13.9590  -10.5020 C.3   102  LEU102      0.0311
    100  CG       -29.0180   12.8340   -9.4930 C.3   102  LEU102      0.0022
    101  CD1      -28.1140   13.0870   -8.2890 C.3   102  LEU102      0.0001
    102  CD2      -30.4850   12.7110   -9.0540 C.3   102  LEU102      0.0001
    103  N        -26.3780   11.9640  -11.7450 N.am  103  MET103     -0.1963
    104  CA       -25.9900   10.7790  -12.5270 C.3   103  MET103      0.1736
    105  C        -26.2840    9.5430  -11.6880 C.2   103  MET103      0.2616
    106  O        -25.3970    8.9900  -11.0300 O.2   103  MET103     -0.2715
    107  CB       -24.5090   10.8670  -12.9090 C.3   103  MET103      0.0427
    108  CG       -24.1520   12.1140  -13.7400 C.3   103  MET103      0.0599
    109  SD       -24.9630   12.0060  -15.3600 S.3   103  MET103     -0.1393
    110  CE       -23.8760   10.7790  -16.1510 C.3   103  MET103      0.0692
    111  N        -27.5420    9.1190  -11.7380 N.am  104  ALA104     -0.1963
    112  CA       -28.0910    8.1490  -10.7640 C.3   104  ALA104      0.1728
    113  C        -27.4660    6.7400  -10.8480 C.2   104  ALA104      0.2617
    114  O        -27.6040    5.9490   -9.9080 O.2   104  ALA104     -0.2715
    115  CB       -29.6320    8.0840  -10.8730 C.3   104  ALA104      0.0334
    116  N        -26.7730    6.4500  -11.9530 N.am  105  GLY105     -0.1940
    117  CA       -26.0220    5.2000  -12.1400 C.3   105  GLY105      0.2014
    118  C        -24.7020    5.1550  -11.3720 C.2   105  GLY105      0.2639
    119  O        -24.0800    4.0900  -11.2490 O.2   105  GLY105     -0.2714
    120  N        -24.2750    6.3070  -10.8530 N.am  106  GLY106     -0.1939
    121  CA       -23.0440    6.4220  -10.0850 C.3   106  GLY106      0.2014
    122  C        -21.8110    6.3520  -10.9470 C.2   106  GLY106      0.2638
    123  O        -21.8790    6.5480  -12.1580 O.2   106  GLY106     -0.2714
    124  N        -20.6590    6.0980  -10.3390 N.am  107  ASP107     -0.1971
    125  CA       -19.4310    6.0350  -11.1050 C.3   107  ASP107      0.1709
    126  C        -19.2960    4.6880  -11.8120 C.2   107  ASP107      0.2293
    127  O        -19.7910    3.6550  -11.3250 O.2   107  ASP107     -0.2864
    128  CB       -18.1770    6.3390  -10.2720 C.3   107  ASP107      0.1436
    129  CG       -17.7380    5.1700   -9.4170 C.2   107  ASP107      0.3671
    130  OD1      -18.3110    5.0100   -8.3250 O.co2 107  ASP107     -0.2456
    131  OD2      -16.8230    4.4090   -9.8400 O.co2 107  ASP107     -0.2456
    132  N        -20.3400   -3.8630   -9.3590 N.3   114  GLU114     -0.1245
    133  CA       -21.5960   -4.2660   -8.7450 C.3   114  GLU114      0.1567
    134  C        -22.5110   -5.0270   -9.7020 C.2   114  GLU114      0.2260
    135  O        -23.3530   -5.8010   -9.2540 O.2   114  GLU114     -0.2867
    136  CB       -22.3440   -3.0540   -8.1820 C.3   114  GLU114      0.0388
    137  CG       -21.6420   -2.4180   -6.9710 C.3   114  GLU114      0.1160
    138  CD       -22.3980   -1.2410   -6.3750 C.2   114  GLU114      0.3649
    139  OE1      -23.5870   -1.0520   -6.7070 O.co2 114  GLU114     -0.2457
    140  OE2      -21.7900   -0.4910   -5.5820 O.co2 114  GLU114     -0.2457
    141  N        -19.2510    8.6480  -15.2580 N.3   160  LEU160     -0.1245
    142  CA       -20.4990    8.5610  -14.5490 C.3   160  LEU160      0.1561
    143  C        -21.5820    8.0310  -15.4900 C.2   160  LEU160      0.2260
    144  O        -21.4930    8.2000  -16.7210 O.2   160  LEU160     -0.2867
    145  CB       -20.8950    9.9520  -14.0460 C.3   160  LEU160      0.0270
    146  CG       -20.0170   10.5870  -12.9670 C.3   160  LEU160      0.0019
    147  CD1      -20.3240   12.0750  -12.7770 C.3   160  LEU160      0.0001
    148  CD2      -20.2570    9.8620  -11.6590 C.3   160  LEU160      0.0001
    149  N        -17.0230   12.8520  -15.9110 N.3   173  GLY173     -0.1210
    150  CA       -17.5750   13.4760  -14.7260 C.3   173  GLY173      0.1956
    151  C        -16.5770   13.9140  -13.6820 C.2   173  GLY173      0.2612
    152  O        -16.9360   14.0580  -12.5230 O.2   173  GLY173     -0.2717
    153  N        -15.3310   14.1420  -14.0910 N.am  174  ASP174     -0.1959
    154  CA       -14.3550   14.7430  -13.1950 C.3   174  ASP174      0.1840
    155  C        -13.2650   15.3530  -14.0680 C.2   174  ASP174      0.2622
    156  O        -12.8850   14.7690  -15.1170 O.2   174  ASP174     -0.2715
    157  CB       -13.7520   13.6930  -12.2580 C.3   174  ASP174      0.1450
    158  CG       -12.8230   14.2920  -11.2270 C.2   174  ASP174      0.3671
    159  OD1      -13.3040   14.6430  -10.1370 O.co2 174  ASP174     -0.2456
    160  OD2      -11.6140   14.4420  -11.5260 O.co2 174  ASP174     -0.2456
    161  N        -12.8320   16.5380  -13.6530 N.am  175  PHE175     -0.1974
    162  CA       -11.8110   17.3300  -14.3530 C.3   175  PHE175      0.1639
    163  C        -10.7440   17.8750  -13.3960 C.2   175  PHE175      0.2290
    164  O        -10.1440   18.9190  -13.6460 O.2   175  PHE175     -0.2864
    165  CB       -12.4900   18.4750  -15.1110 C.3   175  PHE175      0.0560
    166  CG       -13.3190   17.9930  -16.2660 C.ar  175  PHE175     -0.0200
    167  CD1      -12.7460   17.7520  -17.5020 C.ar  175  PHE175     -0.0042
    168  CD2      -14.6690   17.7410  -16.0970 C.ar  175  PHE175     -0.0042
    169  CE1      -13.5030   17.2700  -18.5610 C.ar  175  PHE175     -0.0003
    170  CE2      -15.4130   17.2360  -17.1340 C.ar  175  PHE175     -0.0003
    171  CZ       -14.8400   17.0070  -18.3640 C.ar  175  PHE175     -0.0000
@<TRIPOS>BOND
     1   169   171   ar
     2   169   167   ar
     3   171   170   ar
     4    71    72    1
     5    66    65    2
     6    94    92   ar
     7    93    92   ar
     8   167   166   ar
     9    74    73    2
    10    73    72    1
    11   170   168   ar
    12    72    75    1
    13    92    91    1
    14    65    64    1
    15   144   143    2
    16   166   168   ar
    17   166   165    1
    18   110   109    1
    19    64    63    1
    20    64    67    1
    21    70    68    1
    22   149   150    1
    23    75    77    1
    24    75    76    1
    25    91    90    1
    26   143   142    1
    27   109   108    1
    28    68    67    1
    29   141   142    1
    30   156   155    2
    31   165   162    1
    32    90    87    1
    33    67    69    1
    34   150   151    1
    35   142   145    1
    36   162   161    1
    37   162   163    1
    38   153   151   am
    39   153   154    1
    40   155   161   am
    41   155   154    1
    42   145   146    1
    43   108   107    1
    44   151   152    2
    45   164   163    2
    46    87    86    1
    47    87    88    1
    48   154   157    1
    49    98    97    2
    50    86    80   am
    51   146   147    1
    52   146   148    1
    53    57    56    2
    54   107   104    1
    55    88    89    2
    56    88    95   am
    57   104   103    1
    58   104   105    1
    59   157   158    1
    60    85    83    1
    61   123   122    2
    62   117   116    1
    63   117   118    1
    64    97   103   am
    65    97    96    1
    66    95    96    1
    67   116   113   am
    68    56    55    1
    69    80    79    1
    70    80    81    2
    71   126   127    2
    72   126   125    1
    73   111   105   am
    74   111   112    1
    75   105   106    2
    76   160   158   ar
    77    79    82    1
    78    79    78    1
    79   118   119    2
    80   118   120   am
    81    55    54    1
    82    55    58    1
    83    96    99    1
    84    82    83    1
    85   158   159   ar
    86   125   124    1
    87   125   128    1
    88    83    84    1
    89   122   124   am
    90   122   121    1
    91   115   112    1
    92   120   121    1
    93   113   112    1
    94   113   114    2
    95    99   100    1
    96   128   129    1
    97    59    58    1
    98    59    60    1
    99   131   129   ar
   100   134   135    2
   101   134   133    1
   102   100   102    1
   103   100   101    1
   104   129   130   ar
   105    62    60   ar
   106   132   133    1
   107    60    61   ar
   108   133   136    1
   109    53    52    1
   110    40    41    1
   111    44    41    1
   112   136   137    1
   113    52    51    1
   114    43    42    2
   115    41    42    1
   116    51    50    1
   117   137   138    1
   118   139   138   ar
   119    50    49    1
   120   138   140   ar
   121    49    46    1
   122    39    37   ar
   123    29    28    1
   124    45    46    1
   125    18    17    1
   126    30    28    1
   127    37    36    1
   128    37    38   ar
   129    36    35    1
   130    46    47    1
   131    10     9    1
   132    28    25    1
   133    48    47    2
   134    32    35    1
   135    32    33    1
   136    32    31    1
   137    19    17    1
   138    17    16    1
   139    33    34    2
   140    16    13    1
   141     9    11    1
   142     9     8    2
   143    25    26    1
   144    25    24    1
   145     8     7    1
   146    26    27    2
   147    21    20    1
   148    21    22    1
   149    20    14   am
   150    13    14    1
   151    13    12    1
   152    14    15    2
   153    23    22    2
   154     7     6    1
   155     6     5    1
   156     4     3    2
   157     1     2    1
   158     3     2    1
   159     5     2    1
