@<TRIPOS>MOLECULE
tmp/3ap2A01.pdb
 198 189 0 0 0
SMALL
GASTEIGER

@<TRIPOS>ATOM
      1  N        -38.4320  -13.8830   -5.3980 N.3    24  PRO24      -0.2102
      2  CA       -39.8710  -14.1840   -5.4670 C.3    24  PRO24       0.1504
      3  C        -40.5470  -13.6850   -6.7480 C.2    24  PRO24       0.2576
      4  O        -40.0580  -12.7510   -7.3610 O.2    24  PRO24      -0.2718
      5  CB       -40.4320  -13.4870   -4.2290 C.3    24  PRO24       0.0282
      6  CG       -39.3080  -13.5620   -3.2620 C.3    24  PRO24       0.0208
      7  CD       -38.0380  -13.3980   -4.0680 C.3    24  PRO24       0.0893
      8  N        -41.6390  -14.3120   -7.1630 N.am   25  ARG25      -0.1966
      9  CA       -42.3050  -13.9670   -8.4360 C.3    25  ARG25       0.1729
     10  C        -41.4640  -14.4060   -9.6530 C.2    25  ARG25       0.2617
     11  O        -41.5110  -13.7600  -10.7250 O.2    25  ARG25      -0.2715
     12  CB       -42.6810  -12.4650   -8.5390 C.3    25  ARG25       0.0348
     13  CG       -43.2380  -11.8230   -7.2740 C.3    25  ARG25       0.0492
     14  CD       -44.2950  -12.6990   -6.5620 C.3    25  ARG25       0.2205
     15  NE       -45.3460  -13.1270   -7.4750 N.pl3  25  ARG25      -0.0865
     16  CZ       -46.3570  -13.9520   -7.1860 C.cat  25  ARG25       0.5346
     17  NH1      -46.5220  -14.4740   -5.9680 N.pl3  25  ARG25       0.1354
     18  NH2      -47.2350  -14.2530   -8.1410 N.pl3  25  ARG25       0.1354
     19  N        -40.7080  -15.4900   -9.4800 N.am   26  SER26      -0.1936
     20  CA       -39.8770  -16.0450  -10.5420 C.3    26  SER26       0.2055
     21  C        -40.2410  -17.4870  -10.9320 C.2    26  SER26       0.2644
     22  O        -39.4890  -18.1610  -11.6300 O.2    26  SER26      -0.2714
     23  CB       -38.4040  -15.9520  -10.1580 C.3    26  SER26       0.2130
     24  OG       -38.0310  -14.5910  -10.1500 O.3    26  SER26      -0.2179
     25  N        -41.4070  -17.9520  -10.4960 N.am   27  GLY27      -0.1939
     26  CA       -41.8490  -19.3130  -10.7910 C.3    27  GLY27       0.2014
     27  C        -41.3060  -20.3460   -9.8270 C.2    27  GLY27       0.2640
     28  O        -41.2360  -21.5320  -10.1740 O.2    27  GLY27      -0.2714
     29  N        -40.9370  -19.9260   -8.6120 N.am   28  THR28      -0.1936
     30  CA       -40.3940  -20.8820   -7.6450 C.3    28  THR28       0.2028
     31  C        -41.4770  -21.8430   -7.1020 C.2    28  THR28       0.2643
     32  O        -41.1900  -23.0290   -6.8770 O.2    28  THR28      -0.2714
     33  CB       -39.6330  -20.1960   -6.4790 C.3    28  THR28       0.1808
     34  OG1      -40.5590  -19.4920   -5.6780 O.3    28  THR28      -0.2208
     35  CG2      -38.5340  -19.2210   -6.9590 C.3    28  THR28       0.0379
     36  N        -42.7040  -21.3680   -6.9020 N.am   29  THR29      -0.1936
     37  CA       -43.7660  -22.2460   -6.3770 C.3    29  THR29       0.2028
     38  C        -44.1780  -23.2960   -7.4070 C.2    29  THR29       0.2642
     39  O        -44.4030  -24.4780   -7.0590 O.2    29  THR29      -0.2714
     40  CB       -44.9990  -21.4880   -5.9010 C.3    29  THR29       0.1808
     41  OG1      -44.5790  -20.4080   -5.0840 O.3    29  THR29      -0.2208
     42  CG2      -45.9140  -22.3690   -5.0470 C.3    29  THR29       0.0379
     43  N        -44.2460  -22.8640   -8.6690 N.am   30  LEU30      -0.1977
     44  CA       -44.4650  -23.7600   -9.7880 C.3    30  LEU30       0.1596
     45  C        -43.3970  -24.8630   -9.8280 C.2    30  LEU30       0.2287
     46  O        -43.7250  -26.0540   -9.9020 O.2    30  LEU30      -0.2864
     47  CB       -44.4940  -22.9890  -11.1140 C.3    30  LEU30       0.0297
     48  CG       -44.7590  -23.9050  -12.3140 C.3    30  LEU30       0.0022
     49  CD1      -46.2200  -24.4430  -12.2540 C.3    30  LEU30       0.0001
     50  CD2      -44.4630  -23.2280  -13.6550 C.3    30  LEU30       0.0001
     51  N        -38.3920  -25.0500   -0.4410 N.3   105  LYS105     -0.1245
     52  CA       -38.4610  -23.8400   -1.2350 C.3   105  LYS105      0.1561
     53  C        -38.7800  -22.6370   -0.3780 C.2   105  LYS105      0.2260
     54  O        -39.8920  -22.4640    0.0950 O.2   105  LYS105     -0.2867
     55  CB       -39.4290  -23.9730   -2.4320 C.3   105  LYS105      0.0271
     56  CG       -39.3110  -22.8180   -3.4680 C.3   105  LYS105      0.0035
     57  CD       -40.1030  -21.5390   -3.0400 C.3   105  LYS105      0.0206
     58  CE       -41.5970  -21.6080   -3.3520 C.3   105  LYS105      0.1093
     59  NZ       -42.2110  -20.2410   -3.5140 N.3   105  LYS105     -0.1314
     60  N        -36.1220  -15.5580  -13.9050 N.3   130  ARG130     -0.1245
     61  CA       -37.1770  -15.0000  -14.7430 C.3   130  ARG130      0.1563
     62  C        -36.7900  -13.5490  -15.0310 C.2   130  ARG130      0.2260
     63  O        -36.2040  -12.9020  -14.1690 O.2   130  ARG130     -0.2867
     64  CB       -38.4950  -15.0000  -13.9880 C.3   130  ARG130      0.0307
     65  CG       -39.6950  -14.4990  -14.7680 C.3   130  ARG130      0.0489
     66  CD       -40.9960  -14.4480  -13.8980 C.3   130  ARG130      0.2205
     67  NE       -42.2100  -14.1560  -14.6800 N.pl3 130  ARG130     -0.0865
     68  CZ       -43.3910  -13.8370  -14.1350 C.cat 130  ARG130      0.5346
     69  NH1      -43.5320  -13.7620  -12.8150 N.pl3 130  ARG130      0.1354
     70  NH2      -44.4450  -13.6100  -14.8960 N.pl3 130  ARG130      0.1354
     71  N        -40.5640   -8.9620  -15.4070 N.3   134  ALA134     -0.1245
     72  CA       -41.7240   -9.8120  -15.1290 C.3   134  ALA134      0.1562
     73  C        -41.9790   -9.9940  -13.6330 C.2   134  ALA134      0.2260
     74  O        -43.1200   -9.8440  -13.1710 O.2   134  ALA134     -0.2867
     75  CB       -41.5350  -11.1710  -15.7790 C.3   134  ALA134      0.0290
     76  N        -42.9000   -6.5060  -12.1740 N.3   137  HIS137     -0.1226
     77  CA       -44.2910   -6.2150  -12.5200 C.3   137  HIS137      0.1752
     78  C        -45.2390   -7.0070  -11.6390 C.2   137  HIS137      0.2596
     79  O        -46.2640   -6.4810  -11.1730 O.2   137  HIS137     -0.2718
     80  CB       -44.5680   -6.5500  -13.9930 C.3   137  HIS137      0.0759
     81  CG       -46.0150   -6.4790  -14.3540 C.ar  137  HIS137      0.0818
     82  ND1      -46.7060   -5.2880  -14.4250 N.ar  137  HIS137     -0.2268
     83  CD2      -46.9130   -7.4490  -14.6270 C.ar  137  HIS137      0.1154
     84  CE1      -47.9640   -5.5220  -14.7460 C.ar  137  HIS137      0.1986
     85  NE2      -48.1180   -6.8290  -14.8650 N.ar  137  HIS137     -0.2212
     86  N        -44.8900   -8.2800  -11.4410 N.am  138  SER138     -0.1952
     87  CA       -45.6020   -9.1850  -10.5320 C.3   138  SER138      0.1924
     88  C        -45.6160   -8.7020   -9.0970 C.2   138  SER138      0.2314
     89  O        -46.6980   -8.4730   -8.5210 O.2   138  SER138     -0.2863
     90  CB       -44.9820  -10.5790  -10.5790 C.3   138  SER138      0.2116
     91  OG       -45.7440  -11.4630   -9.7820 O.3   138  SER138     -0.2180
     92  N        -49.3810   -7.2550   -7.8050 N.3   142  ARG142     -0.1245
     93  CA       -49.9900   -8.1410   -6.8140 C.3   142  ARG142      0.1563
     94  C        -49.7910   -7.6450   -5.3880 C.2   142  ARG142      0.2260
     95  O        -50.4870   -8.0780   -4.5060 O.2   142  ARG142     -0.2867
     96  CB       -49.4790   -9.5830   -6.9910 C.3   142  ARG142      0.0307
     97  CG       -49.8910  -10.2320   -8.3050 C.3   142  ARG142      0.0489
     98  CD       -49.5650  -11.7010   -8.2700 C.3   142  ARG142      0.2205
     99  NE       -49.6260  -12.3560   -9.5740 N.pl3 142  ARG142     -0.0865
    100  CZ       -50.7300  -12.9200  -10.0710 C.cat 142  ARG142      0.5346
    101  NH1      -51.8520  -12.8720   -9.3780 N.pl3 142  ARG142      0.1354
    102  NH2      -50.7190  -13.5190  -11.2640 N.pl3 142  ARG142      0.1354
    103  N        -37.4360  -19.5600  -15.9690 N.3   185  TYR185     -0.1241
    104  CA       -38.9000  -19.6470  -15.8480 C.3   185  TYR185      0.1605
    105  C        -39.5730  -19.7410  -17.2100 C.2   185  TYR185      0.2264
    106  O        -40.4450  -20.5860  -17.3960 O.2   185  TYR185     -0.2867
    107  CB       -39.4850  -18.4630  -15.0550 C.3   185  TYR185      0.0534
    108  CG       -40.9850  -18.3480  -15.1710 C.ar  185  TYR185     -0.0201
    109  CD1      -41.8280  -19.2130  -14.4790 C.ar  185  TYR185     -0.0009
    110  CD2      -41.5680  -17.4070  -16.0080 C.ar  185  TYR185     -0.0009
    111  CE1      -43.2050  -19.1310  -14.6030 C.ar  185  TYR185      0.0417
    112  CE2      -42.9680  -17.3160  -16.1360 C.ar  185  TYR185      0.0417
    113  CZ       -43.7680  -18.1720  -15.4350 C.ar  185  TYR185      0.1957
    114  OH       -45.1290  -18.0800  -15.5620 O.3   185  TYR185     -0.2866
    115  N        -41.7500  -22.6790  -18.8150 N.3   189  VAL189     -0.1245
    116  CA       -43.1740  -22.5480  -19.1690 C.3   189  VAL189      0.1561
    117  C        -43.4480  -22.9710  -20.6230 C.2   189  VAL189      0.2260
    118  O        -44.4260  -23.6660  -20.8960 O.2   189  VAL189     -0.2867
    119  CB       -43.7050  -21.1320  -18.8890 C.3   189  VAL189      0.0252
    120  CG1      -45.0110  -20.8790  -19.6120 C.3   189  VAL189      0.0019
    121  CG2      -43.8560  -20.9290  -17.3630 C.3   189  VAL189      0.0019
    122  N        -48.9270  -31.6430  -12.3490 N.3   214  HIS214     -0.1241
    123  CA       -48.9540  -31.2320  -10.9540 C.3   214  HIS214      0.1621
    124  C        -50.3650  -30.8530  -10.5170 C.2   214  HIS214      0.2264
    125  O        -50.7490  -31.1370   -9.3840 O.2   214  HIS214     -0.2867
    126  CB       -47.9410  -30.1150  -10.6710 C.3   214  HIS214      0.0745
    127  CG       -48.3850  -28.7710  -11.1450 C.ar  214  HIS214      0.0817
    128  ND1      -48.1960  -28.3390  -12.4410 N.ar  214  HIS214     -0.2268
    129  CD2      -49.0550  -27.7790  -10.5060 C.ar  214  HIS214      0.1154
    130  CE1      -48.7300  -27.1340  -12.5780 C.ar  214  HIS214      0.1986
    131  NE2      -49.2450  -26.7660  -11.4140 N.ar  214  HIS214     -0.2212
    132  N        -48.6150  -17.2330   -4.4370 N.3   232  SER232     -0.1217
    133  CA       -48.5950  -17.9800   -5.6990 C.3   232  SER232      0.1889
    134  C        -49.6850  -19.0370   -5.8740 C.2   232  SER232      0.2288
    135  O        -49.8400  -19.5860   -6.9670 O.2   232  SER232     -0.2866
    136  CB       -47.2180  -18.5940   -5.9550 C.3   232  SER232      0.2089
    137  OG       -46.3350  -17.6000   -6.4660 O.3   232  SER232     -0.2183
    138  N        -52.1750  -19.3360   -8.7000 N.3   235  GLN235     -0.1231
    139  CA       -51.5910  -19.5840   -9.9990 C.3   235  GLN235      0.1698
    140  C        -51.1540  -20.9980  -10.1960 C.2   235  GLN235      0.2592
    141  O        -51.1390  -21.4780  -11.3360 O.2   235  GLN235     -0.2718
    142  CB       -50.4010  -18.6740  -10.3270 C.3   235  GLN235      0.0381
    143  CG       -50.7230  -17.2160  -10.3180 C.3   235  GLN235      0.0905
    144  CD       -50.3400  -16.6070   -8.9860 C.2   235  GLN235      0.2608
    145  OE1      -51.2170  -16.2780   -8.1480 O.2   235  GLN235     -0.2717
    146  NE2      -49.0290  -16.5200   -8.7460 N.am  235  GLN235     -0.0878
    147  N        -50.7900  -21.6650   -9.1100 N.am  236  VAL236     -0.1980
    148  CA       -50.1050  -22.9440   -9.2090 C.3   236  VAL236      0.1595
    149  C        -51.0850  -24.1320   -9.3100 C.2   236  VAL236      0.2287
    150  O        -50.6970  -25.2390   -9.6720 O.2   236  VAL236     -0.2864
    151  CB       -49.0710  -23.1050   -8.0630 C.3   236  VAL236      0.0276
    152  CG1      -48.6560  -24.5610   -7.8780 C.3   236  VAL236      0.0022
    153  CG2      -47.8530  -22.2370   -8.3270 C.3   236  VAL236      0.0022
    154  N        -53.3910  -24.3740  -11.4620 N.3   238  LYS238     -0.1231
    155  CA       -53.5780  -24.6470  -12.8900 C.3   238  LYS238      0.1678
    156  C        -52.3790  -25.3740  -13.4350 C.2   238  LYS238      0.2434
    157  O        -51.3340  -25.3750  -12.8170 O.2   238  LYS238     -0.2733
    158  CB       -53.7900  -23.3550  -13.6760 C.3   238  LYS238      0.0284
    159  CG       -54.9050  -22.4840  -13.1540 C.3   238  LYS238      0.0035
    160  CD       -54.7530  -21.1200  -13.7540 C.3   238  LYS238      0.0206
    161  CE       -55.1720  -19.9840  -12.8180 C.3   238  LYS238      0.1093
    162  NZ       -54.7110  -18.6920  -13.4400 N.3   238  LYS238     -0.1314
    163  N        -52.5280  -26.0060  -14.6020 N.am  239  PRO239     -0.2718
    164  CA       -51.4280  -26.6410  -15.3150 C.3   239  PRO239      0.1535
    165  C        -50.4750  -25.5910  -15.8100 C.2   239  PRO239      0.2598
    166  O        -50.8510  -24.4300  -15.8850 O.2   239  PRO239     -0.2715
    167  CB       -52.1170  -27.2860  -16.5150 C.3   239  PRO239      0.0310
    168  CG       -53.4540  -26.5540  -16.6420 C.3   239  PRO239      0.0237
    169  CD       -53.8280  -26.2810  -15.2330 C.3   239  PRO239      0.0939
    170  N        -49.2470  -25.9820  -16.1420 N.am  240  VAL240     -0.1964
    171  CA       -48.3010  -25.0550  -16.7240 C.3   240  VAL240      0.1727
    172  C        -48.9800  -24.4120  -17.9260 C.2   240  VAL240      0.2616
    173  O        -49.3440  -25.1040  -18.8610 O.2   240  VAL240     -0.2715
    174  CB       -47.0280  -25.7560  -17.1850 C.3   240  VAL240      0.0290
    175  CG1      -46.0840  -24.7470  -17.7990 C.3   240  VAL240      0.0023
    176  CG2      -46.3570  -26.4450  -16.0120 C.3   240  VAL240      0.0023
    177  N        -49.1880  -23.0990  -17.8580 N.am  241  ASN241     -0.1972
    178  CA       -49.7520  -22.3070  -18.9420 C.3   241  ASN241      0.1688
    179  C        -48.9060  -21.0610  -19.2810 C.2   241  ASN241      0.2292
    180  O        -47.9520  -20.7370  -18.5810 O.2   241  ASN241     -0.2864
    181  CB       -51.1850  -21.9110  -18.6190 C.3   241  ASN241      0.1181
    182  CG       -51.2740  -20.9360  -17.4650 C.2   241  ASN241      0.2629
    183  OD1      -51.2930  -21.3330  -16.2880 O.2   241  ASN241     -0.2716
    184  ND2      -51.3480  -19.6550  -17.7890 N.am  241  ASN241     -0.0877
    185  N        -48.4920  -15.7010  -18.4100 N.3   244  ALA244     -0.1245
    186  CA       -47.7730  -14.8160  -17.5300 C.3   244  ALA244      0.1562
    187  C        -46.3890  -14.4470  -18.0220 C.2   244  ALA244      0.2260
    188  O        -45.6760  -13.7220  -17.3430 O.2   244  ALA244     -0.2867
    189  CB       -47.7150  -15.4020  -16.1110 C.3   244  ALA244      0.0290
    190  N        -46.8720  -10.5280  -20.1490 N.3   247  LYS247     -0.1245
    191  CA       -47.8700   -9.5380  -19.7760 C.3   247  LYS247      0.1561
    192  C        -47.2830   -8.2600  -19.1080 C.2   247  LYS247      0.2260
    193  O        -47.9550   -7.2010  -19.0650 O.2   247  LYS247     -0.2867
    194  CB       -48.9200  -10.1710  -18.8900 C.3   247  LYS247      0.0271
    195  CG       -48.4360  -10.4810  -17.4960 C.3   247  LYS247      0.0035
    196  CD       -49.4350  -11.3730  -16.7170 C.3   247  LYS247      0.0206
    197  CE       -48.9010  -11.7460  -15.3070 C.3   247  LYS247      0.1093
    198  NZ       -49.9010  -12.6000  -14.5400 N.3   247  LYS247     -0.1314
@<TRIPOS>BOND
     1   118   117    2
     2   117   116    1
     3   190   191    1
     4   191   192    1
     5   191   194    1
     6   120   119    1
     7   179   178    1
     8   179   180    2
     9   116   119    1
    10   116   115    1
    11   192   193    2
    12   178   181    1
    13   178   177    1
    14   194   195    1
    15   119   121    1
    16   173   172    2
    17   181   182    1
    18   185   186    1
    19   187   186    1
    20   187   188    2
    21   172   177   am
    22   172   171    1
    23   175   174    1
    24   184   182   am
    25   186   189    1
    26   195   196    1
    27   182   183    2
    28   106   105    2
    29   105   104    1
    30   174   171    1
    31   174   176    1
    32   171   170    1
    33   196   197    1
    34   168   167    1
    35   168   169    1
    36   167   164    1
    37   170   165   am
    38   112   110   ar
    39   112   113   ar
    40   110   108   ar
    41   103   104    1
    42   166   165    2
    43   104   107    1
    44   165   164    1
    45    75    72    1
    46   114   113    1
    47   113   111   ar
    48    71    72    1
    49   164   163    1
    50   197   198    1
    51   169   163    1
    52   108   107    1
    53   108   109   ar
    54    72    73    1
    55    62    61    1
    56    62    63    2
    57    70    68    1
    58    85    84   ar
    59    85    83   ar
    60    65    64    1
    61    65    66    1
    62    84    82   ar
    63    61    64    1
    64    61    60    1
    65    67    68    2
    66    67    66    1
    67    83    81   ar
    68   111   109   ar
    69   163   156   am
    70    82    81   ar
    71    81    80    1
    72    68    69    1
    73    80    77    1
    74   160   159    1
    75   160   161    1
    76   158   159    1
    77   158   155    1
    78    50    48    1
    79    73    74    2
    80   162   161    1
    81   156   155    1
    82   156   157    2
    83   155   154    1
    84   130   128   ar
    85   130   131   ar
    86    77    76    1
    87    77    78    1
    88   128   127   ar
    89   122   123    1
    90    48    49    1
    91    48    47    1
    92    78    86   am
    93    78    79    2
    94    22    21    2
    95    86    87    1
    96   131   129   ar
    97   141   140    2
    98   102   100    1
    99   127   126    1
   100   127   129   ar
   101    47    44    1
   102   123   126    1
   103   123   124    1
   104    21    20    1
   105    21    25   am
   106    26    25    1
   107    26    27    1
   108    11    10    2
   109    90    87    1
   110    90    91    1
   111    20    23    1
   112    20    19    1
   113    87    88    1
   114   124   125    2
   115   142   143    1
   116   142   139    1
   117   143   144    1
   118   140   139    1
   119   140   147   am
   120    28    27    2
   121    23    24    1
   122   100    99    2
   123   100   101    1
   124   139   138    1
   125    46    45    2
   126    45    44    1
   127    27    29   am
   128    44    43    1
   129   150   149    2
   130    10    19   am
   131    10     9    1
   132    99    98    1
   133   149   148    1
   134   148   147    1
   135   148   151    1
   136    88    89    2
   137   144   146   am
   138   144   145    2
   139    43    38   am
   140    29    30    1
   141    12     9    1
   142    12    13    1
   143     9     8    1
   144   153   151    1
   145    97    98    1
   146    97    96    1
   147    18    16    1
   148   151   152    1
   149    92    93    1
   150    30    31    1
   151    30    33    1
   152    15    16    2
   153    15    14    1
   154    38    39    2
   155    38    37    1
   156     4     3    2
   157    13    14    1
   158    16    17    1
   159     8     3   am
   160    31    36   am
   161    31    32    2
   162    96    93    1
   163   135   134    2
   164    35    33    1
   165    36    37    1
   166    93    94    1
   167     3     2    1
   168    33    34    1
   169   137   136    1
   170    37    40    1
   171   136   133    1
   172    40    41    1
   173    40    42    1
   174   134   133    1
   175   133   132    1
   176     2     1    1
   177     2     5    1
   178     1     7    1
   179    94    95    2
   180     5     6    1
   181     7     6    1
   182    59    58    1
   183    56    57    1
   184    56    55    1
   185    58    57    1
   186    55    52    1
   187    52    51    1
   188    52    53    1
   189    53    54    2
