@<TRIPOS>MOLECULE
tmp/3ap2B00.pdb
 159 154 0 0 0
SMALL
GASTEIGER

@<TRIPOS>ATOM
      1  N        -29.5970  -10.2190   34.3340 N.3    22  PRO22      -0.2102
      2  CA       -28.1250  -10.0970   34.4750 C.3    22  PRO22       0.1504
      3  C        -27.6530   -9.2240   35.6670 C.2    22  PRO22       0.2575
      4  O        -28.4110   -8.3540   36.1790 O.2    22  PRO22      -0.2718
      5  CB       -27.6870   -9.5000   33.1270 C.3    22  PRO22       0.0282
      6  CG       -28.7610   -9.9320   32.1530 C.3    22  PRO22       0.0208
      7  CD       -30.0530  -10.0190   32.9530 C.3    22  PRO22       0.0893
      8  N        -26.4130   -9.4630   36.0950 N.am   23  ARG23      -0.1980
      9  CA       -25.8890   -8.8890   37.3440 C.3    23  ARG23       0.1597
     10  C        -26.7160   -9.3270   38.5590 C.2    23  ARG23       0.2287
     11  O        -27.0320   -8.5130   39.4400 O.2    23  ARG23      -0.2864
     12  CB       -25.8280   -7.3530   37.2740 C.3    23  ARG23       0.0334
     13  CG       -25.5110   -6.7890   35.9000 C.3    23  ARG23       0.0492
     14  CD       -24.2040   -7.3540   35.3770 C.3    23  ARG23       0.2205
     15  NE       -23.1030   -7.0910   36.2890 N.pl3  23  ARG23      -0.0865
     16  CZ       -21.9400   -7.7380   36.2600 C.cat  23  ARG23       0.5346
     17  NH1      -21.7330   -8.6900   35.3640 N.pl3  23  ARG23       0.1354
     18  NH2      -20.9910   -7.4480   37.1450 N.pl3  23  ARG23       0.1354
     19  N        -23.3530  -15.8930   37.0620 N.3    27  THR27      -0.1218
     20  CA       -22.0650  -16.4940   36.6950 C.3    27  THR27       0.1862
     21  C        -21.4760  -17.1910   37.9110 C.2    27  THR27       0.2287
     22  O        -21.0100  -18.3300   37.8190 O.2    27  THR27      -0.2866
     23  CB       -21.0450  -15.4560   36.1740 C.3    27  THR27       0.1770
     24  OG1      -21.6340  -14.6760   35.1230 O.3    27  THR27      -0.2211
     25  CG2      -19.7900  -16.1360   35.6290 C.3    27  THR27       0.0375
     26  N        -21.5920  -18.4080   28.6840 N.3    44  GLU44      -0.1245
     27  CA       -22.8470  -17.9610   28.1000 C.3    44  GLU44       0.1567
     28  C        -22.8020  -18.2380   26.6060 C.2    44  GLU44       0.2260
     29  O        -21.9350  -17.7280   25.9250 O.2    44  GLU44      -0.2867
     30  CB       -23.0220  -16.4540   28.3340 C.3    44  GLU44       0.0388
     31  CG       -23.1320  -16.0420   29.8030 C.3    44  GLU44       0.1160
     32  CD       -23.3810  -14.5330   30.0040 C.2    44  GLU44       0.3649
     33  OE1      -22.9750  -13.7080   29.1490 O.co2  44  GLU44      -0.2457
     34  OE2      -23.9930  -14.1740   31.0430 O.co2  44  GLU44      -0.2457
     35  N        -25.0320  -17.2250   24.3790 N.3    46  ARG46      -0.1245
     36  CA       -25.5560  -15.9870   23.7450 C.3    46  ARG46       0.1563
     37  C        -26.6130  -16.2450   22.6900 C.2    46  ARG46       0.2260
     38  O        -27.6060  -15.5050   22.6160 O.2    46  ARG46      -0.2867
     39  CB       -24.4420  -15.1170   23.1500 C.3    46  ARG46       0.0307
     40  CG       -23.4130  -14.6990   24.1260 C.3    46  ARG46       0.0489
     41  CD       -22.2190  -14.0450   23.4680 C.3    46  ARG46       0.2205
     42  NE       -22.5290  -12.7860   22.7880 N.pl3  46  ARG46      -0.0865
     43  CZ       -22.9050  -11.6460   23.3740 C.cat  46  ARG46       0.5346
     44  NH1      -23.1330  -10.5730   22.6160 N.pl3  46  ARG46       0.1354
     45  NH2      -23.0520  -11.5650   24.6960 N.pl3  46  ARG46       0.1354
     46  N        -30.4400  -17.6510   23.9950 N.3    49  PRO49      -0.2102
     47  CA       -31.4710  -16.6400   24.2530 C.3    49  PRO49       0.1504
     48  C        -32.0720  -16.0470   22.9590 C.2    49  PRO49       0.2575
     49  O        -33.2790  -15.8510   22.8860 O.2    49  PRO49      -0.2718
     50  CB       -30.7470  -15.5880   25.0970 C.3    49  PRO49       0.0282
     51  CG       -29.2700  -15.9560   25.0220 C.3    49  PRO49       0.0208
     52  CD       -29.2250  -17.4160   24.7800 C.3    49  PRO49       0.0893
     53  N        -31.2560  -15.8430   21.9310 N.am   50  ARG50      -0.1980
     54  CA       -31.7540  -15.3390   20.6440 C.3    50  ARG50       0.1597
     55  C        -32.7730  -16.2480   19.9660 C.2    50  ARG50       0.2287
     56  O        -33.8530  -15.7900   19.6310 O.2    50  ARG50      -0.2864
     57  CB       -30.6090  -14.9640   19.7160 C.3    50  ARG50       0.0334
     58  CG       -29.5720  -14.0960   20.4240 C.3    50  ARG50       0.0492
     59  CD       -28.7300  -13.2530   19.4930 C.3    50  ARG50       0.2205
     60  NE       -27.7440  -12.4700   20.2480 N.pl3  50  ARG50      -0.0865
     61  CZ       -26.4330  -12.7040   20.2320 C.cat  50  ARG50       0.5346
     62  NH1      -25.6250  -11.9440   20.9440 N.pl3  50  ARG50       0.1354
     63  NH2      -25.9200  -13.6960   19.4830 N.pl3  50  ARG50       0.1354
     64  N        -25.9830  -21.6460   31.4470 N.3   103  LYS103     -0.1231
     65  CA       -26.3300  -20.3300   31.9690 C.3   103  LYS103      0.1693
     66  C        -26.2840  -19.2720   30.8650 C.2   103  LYS103      0.2592
     67  O        -25.2280  -19.0200   30.2670 O.2   103  LYS103     -0.2718
     68  CB       -25.4860  -19.9330   33.1900 C.3   103  LYS103      0.0285
     69  CG       -26.0190  -18.6910   33.9630 C.3   103  LYS103      0.0035
     70  CD       -25.6030  -17.3770   33.3360 C.3   103  LYS103      0.0206
     71  CE       -24.2230  -16.9270   33.8220 C.3   103  LYS103      0.1093
     72  NZ       -23.7170  -15.6620   33.1840 N.3   103  LYS103     -0.1314
     73  N        -27.4610  -18.7000   30.5980 N.am  104  ASP104     -0.1960
     74  CA       -27.6480  -17.5160   29.7590 C.3   104  ASP104      0.1825
     75  C        -28.7900  -16.8090   30.4400 C.2   104  ASP104      0.2464
     76  O        -29.8990  -17.3290   30.4380 O.2   104  ASP104     -0.2730
     77  CB       -28.0800  -17.8630   28.3160 C.3   104  ASP104      0.1450
     78  CG       -26.9040  -18.1420   27.4010 C.2   104  ASP104      0.3671
     79  OD1      -26.1180  -17.2240   27.0930 O.co2 104  ASP104     -0.2456
     80  OD2      -26.7510  -19.3020   26.9860 O.co2 104  ASP104     -0.2456
     81  N        -28.5290  -15.6230   31.0160 N.am  105  PRO105     -0.2715
     82  CA       -29.4730  -14.9700   31.9130 C.3   105  PRO105      0.1536
     83  C        -30.9450  -14.9890   31.5370 C.2   105  PRO105      0.2598
     84  O        -31.7880  -15.3070   32.3860 O.2   105  PRO105     -0.2715
     85  CB       -28.9290  -13.5490   31.9930 C.3   105  PRO105      0.0310
     86  CG       -27.4620  -13.8250   32.0750 C.3   105  PRO105      0.0237
     87  CD       -27.2230  -14.9400   31.0550 C.3   105  PRO105      0.0939
     88  N        -31.2690  -14.6740   30.2930 N.am  106  PHE106     -0.1974
     89  CA       -32.6770  -14.4990   29.9700 C.3   106  PHE106      0.1639
     90  C        -33.4380  -15.7800   29.6110 C.2   106  PHE106      0.2290
     91  O        -34.6770  -15.7810   29.5970 O.2   106  PHE106     -0.2864
     92  CB       -32.8670  -13.4140   28.9070 C.3   106  PHE106      0.0560
     93  CG       -32.6930  -12.0180   29.4200 C.ar  106  PHE106     -0.0200
     94  CD1      -33.6760  -11.4130   30.1840 C.ar  106  PHE106     -0.0042
     95  CD2      -31.5600  -11.2880   29.1060 C.ar  106  PHE106     -0.0042
     96  CE1      -33.5320  -10.0760   30.6410 C.ar  106  PHE106     -0.0003
     97  CE2      -31.4060   -9.9530   29.5660 C.ar  106  PHE106     -0.0003
     98  CZ       -32.4020   -9.3570   30.3400 C.ar  106  PHE106     -0.0000
     99  N        -21.4850   -0.5200   33.1330 N.3   141  LYS141     -0.1231
    100  CA       -21.9210   -0.4070   31.7120 C.3   141  LYS141      0.1693
    101  C        -22.1040   -1.7430   30.9840 C.2   141  LYS141      0.2592
    102  O        -21.7890   -1.8650   29.8010 O.2   141  LYS141     -0.2718
    103  CB       -21.0110    0.5360   30.8920 C.3   141  LYS141      0.0285
    104  CG       -21.1400    1.9920   31.2780 C.3   141  LYS141      0.0035
    105  CD       -20.0610    2.8690   30.6180 C.3   141  LYS141      0.0206
    106  CE       -20.1790    4.3110   31.1660 C.3   141  LYS141      0.1093
    107  NZ       -18.8930    5.0560   31.1150 N.3   141  LYS141     -0.1314
    108  N        -22.6120   -2.7370   31.6990 N.am  142  VAL142     -0.1966
    109  CA       -23.0660   -3.9820   31.0920 C.3   142  VAL142      0.1727
    110  C        -24.3870   -3.6890   30.3650 C.2   142  VAL142      0.2617
    111  O        -25.3850   -3.3720   31.0040 O.2   142  VAL142     -0.2715
    112  CB       -23.2970   -5.0660   32.1500 C.3   142  VAL142      0.0290
    113  CG1      -23.3080   -6.4680   31.5070 C.3   142  VAL142      0.0023
    114  CG2      -22.2650   -4.9730   33.2610 C.3   142  VAL142      0.0023
    115  N        -24.3710   -3.8130   29.0320 N.am  143  THR143     -0.1937
    116  CA       -25.4420   -3.3750   28.1420 C.3   143  THR143      0.2028
    117  C        -26.4410   -4.4840   27.8890 C.2   143  THR143      0.2642
    118  O        -26.0600   -5.6320   27.6500 O.2   143  THR143     -0.2714
    119  CB       -24.8580   -2.9400   26.7970 C.3   143  THR143      0.1808
    120  OG1      -24.0490   -4.0020   26.2460 O.3   143  THR143     -0.2208
    121  CG2      -24.0070   -1.6230   26.9460 C.3   143  THR143      0.0379
    122  N        -27.7230   -4.1460   27.9830 N.am  144  ILE144     -0.1963
    123  CA       -28.8330   -5.0580   27.6890 C.3   144  ILE144      0.1727
    124  C        -29.7150   -4.2980   26.6930 C.2   144  ILE144      0.2616
    125  O        -30.1770   -3.1750   26.9730 O.2   144  ILE144     -0.2715
    126  CB       -29.6940   -5.3410   28.9490 C.3   144  ILE144      0.0290
    127  CG1      -28.8530   -5.9130   30.1040 C.3   144  ILE144      0.0022
    128  CG2      -30.8690   -6.2690   28.6400 C.3   144  ILE144      0.0023
    129  CD1      -29.5760   -5.7830   31.4620 C.3   144  ILE144      0.0001
    130  N        -29.9550   -4.8760   25.5320 N.am  145  ALA145     -0.1977
    131  CA       -30.7750   -4.1790   24.5550 C.3   145  ALA145      0.1597
    132  C        -32.1200   -3.8000   25.1800 C.2   145  ALA145      0.2287
    133  O        -32.8150   -4.6450   25.7700 O.2   145  ALA145     -0.2864
    134  CB       -30.9740   -5.0110   23.3310 C.3   145  ALA145      0.0319
    135  N        -14.0500  -12.0550   27.9640 N.3   227  ILE227     -0.1245
    136  CA       -14.8480  -10.9070   27.5440 C.3   227  ILE227      0.1561
    137  C        -16.0980  -10.7400   28.4180 C.2   227  ILE227      0.2260
    138  O        -16.5900   -9.6140   28.5790 O.2   227  ILE227     -0.2867
    139  CB       -15.2040  -10.9540   26.0430 C.3   227  ILE227      0.0252
    140  CG1      -13.9490  -10.6970   25.2090 C.3   227  ILE227      0.0019
    141  CG2      -16.3110   -9.9300   25.7090 C.3   227  ILE227      0.0019
    142  CD1      -14.1580  -10.7960   23.6740 C.3   227  ILE227      0.0001
    143  N        -18.4970  -10.0020   31.4050 N.3   229  ARG229     -0.1231
    144  CA       -18.3050   -8.8300   32.2540 C.3   229  ARG229      0.1694
    145  C        -18.1350   -9.1870   33.7260 C.2   229  ARG229      0.2592
    146  O        -17.5960   -8.3810   34.5010 O.2   229  ARG229     -0.2718
    147  CB       -19.4680   -7.8350   32.0880 C.3   229  ARG229      0.0321
    148  CG       -19.6340   -7.2160   30.6760 C.3   229  ARG229      0.0489
    149  CD       -18.3840   -6.4930   30.1690 C.3   229  ARG229      0.2205
    150  NE       -17.8010   -5.6630   31.2080 N.pl3 229  ARG229     -0.0865
    151  CZ       -18.0850   -4.3820   31.4260 C.cat 229  ARG229      0.5346
    152  NH1      -17.4840   -3.7570   32.4160 N.pl3 229  ARG229      0.1354
    153  NH2      -18.9580   -3.7190   30.6700 N.pl3 229  ARG229      0.1354
    154  N        -18.6020  -10.3940   34.0810 N.am  230  SER230     -0.1952
    155  CA       -18.6260  -10.9230   35.4580 C.3   230  SER230      0.1924
    156  C        -17.2890  -11.5850   35.8170 C.2   230  SER230      0.2314
    157  O        -16.9130  -11.6630   36.9980 O.2   230  SER230     -0.2863
    158  CB       -19.7560  -11.9540   35.6200 C.3   230  SER230      0.2116
    159  OG       -21.0400  -11.3580   35.7590 O.3   230  SER230     -0.2180
@<TRIPOS>BOND
     1    63    61    1
     2    59    60    1
     3    59    58    1
     4    56    55    2
     5    57    58    1
     6    57    54    1
     7    55    54    1
     8    61    60    2
     9    61    62    1
    10    54    53    1
    11    53    48   am
    12    38    37    2
    13    44    43    1
    14    37    36    1
    15    42    43    2
    16    42    41    1
    17    49    48    2
    18    48    47    1
    19    39    36    1
    20    39    40    1
    21   134   131    1
    22    43    45    1
    23    41    40    1
    24   142   140    1
    25    36    35    1
    26    46    47    1
    27    46    52    1
    28    47    50    1
    29   131   132    1
    30   131   130    1
    31    52    51    1
    32    51    50    1
    33   132   133    2
    34   140   139    1
    35   130   124   am
    36   141   139    1
    37    29    28    2
    38   139   136    1
    39   120   119    1
    40    28    27    1
    41   124   125    2
    42   124   123    1
    43   119   121    1
    44   119   116    1
    45    80    78   ar
    46    79    78   ar
    47    78    77    1
    48   136   135    1
    49   136   137    1
    50   118   117    2
    51   123   122    1
    52   123   126    1
    53   117   122   am
    54   117   116    1
    55    27    30    1
    56    27    26    1
    57   116   115    1
    58    77    74    1
    59    30    31    1
    60   137   138    2
    61   128   126    1
    62    92    93    1
    63    92    89    1
    64   126   127    1
    65   115   110   am
    66    95    93   ar
    67    95    97   ar
    68    33    32   ar
    69    93    94   ar
    70    97    98   ar
    71    91    90    2
    72    90    89    1
    73    74    75    1
    74    74    73    1
    75   102   101    2
    76    31    32    1
    77    89    88    1
    78    32    34   ar
    79   127   129    1
    80   149   148    1
    81   149   150    1
    82    94    96   ar
    83    67    66    2
    84    88    83   am
    85    98    96   ar
    86   110   111    2
    87   110   109    1
    88    76    75    2
    89    75    81   am
    90    73    66   am
    91   105   106    1
    92   105   104    1
    93   153   151    1
    94   148   147    1
    95    66    65    1
    96   103   104    1
    97   103   100    1
    98   101   108   am
    99   101   100    1
   100    81    87    1
   101    81    82    1
   102    87    86    1
   103   109   108    1
   104   109   112    1
   105   107   106    1
   106   150   151    2
   107   143   144    1
   108   151   152    1
   109    64    65    1
   110   113   112    1
   111    83    82    1
   112    83    84    2
   113   100    99    1
   114    82    85    1
   115    65    68    1
   116    85    86    1
   117   147   144    1
   118   112   114    1
   119     6     7    1
   120     6     5    1
   121   144   145    1
   122     7     1    1
   123     5     2    1
   124    72    71    1
   125    68    69    1
   126    70    71    1
   127    70    69    1
   128   145   154   am
   129   145   146    2
   130   154   155    1
   131     1     2    1
   132     2     3    1
   133    24    23    1
   134    17    16    1
   135    14    13    1
   136    14    15    1
   137   155   158    1
   138   155   156    1
   139   158   159    1
   140    25    23    1
   141     3     8   am
   142     3     4    2
   143   156   157    2
   144    13    12    1
   145     8     9    1
   146    23    20    1
   147    16    15    2
   148    16    18    1
   149    20    19    1
   150    20    21    1
   151    12     9    1
   152     9    10    1
   153    22    21    2
   154    10    11    2
