@<TRIPOS>MOLECULE
tmp/3ap9A00.pdb
 166 154 0 0 0
SMALL
GASTEIGER

@<TRIPOS>ATOM
      1  N         25.3390   12.7810   31.2520 N.3    15  PRO15      -0.2116
      2  CA        25.9330   14.1170   31.3420 C.3    15  PRO15       0.1372
      3  C         27.1130   14.3270   30.4020 C.2    15  PRO15       0.2244
      4  O         27.9690   13.4550   30.2620 O.2    15  PRO15      -0.2868
      5  CB        26.3990   14.1990   32.8010 C.3    15  PRO15       0.0268
      6  CG        26.6390   12.7950   33.1960 C.3    15  PRO15       0.0207
      7  CD        25.6020   11.9910   32.4730 C.3    15  PRO15       0.0892
      8  N         13.3800   18.5770   34.2890 N.3    42  ARG42      -0.1245
      9  CA        14.3140   19.6850   34.0440 C.3    42  ARG42       0.1563
     10  C         15.5680   19.1840   33.3420 C.2    42  ARG42       0.2260
     11  O         15.8960   18.0040   33.4070 O.2    42  ARG42      -0.2867
     12  CB        14.7130   20.3900   35.3490 C.3    42  ARG42       0.0307
     13  CG        14.9960   19.4550   36.5180 C.3    42  ARG42       0.0489
     14  CD        15.6070   20.1980   37.6700 C.3    42  ARG42       0.2205
     15  NE        16.9940   20.5760   37.3910 N.pl3  42  ARG42      -0.0865
     16  CZ        17.6640   21.5380   38.0240 C.cat  42  ARG42       0.5346
     17  NH1       17.0820   22.2780   38.9590 N.pl3  42  ARG42       0.1354
     18  NH2       18.9240   21.7850   37.7030 N.pl3  42  ARG42       0.1354
     19  N         19.6380   21.2180   32.0450 N.3    44  GLN44      -0.1245
     20  CA        20.3740   22.4770   32.0820 C.3    44  GLN44       0.1566
     21  C         21.6130   22.4650   31.2050 C.2    44  GLN44       0.2260
     22  O         22.2260   21.4220   30.9710 O.2    44  GLN44      -0.2867
     23  CB        20.7420   22.8990   33.5220 C.3    44  GLN44       0.0367
     24  CG        21.7150   21.9710   34.2560 C.3    44  GLN44       0.0905
     25  CD        21.0320   20.9700   35.1660 C.2    44  GLN44       0.2608
     26  OE1       19.8790   20.6080   34.9610 O.2    44  GLN44      -0.2717
     27  NE2       21.7500   20.5120   36.1830 N.am   44  GLN44      -0.0878
     28  N         25.1650   24.4410   31.3140 N.3    46  ASP46      -0.1239
     29  CA        26.0490   25.1870   32.2030 C.3    46  ASP46       0.1674
     30  C         27.3040   25.6170   31.4560 C.2    46  ASP46       0.2266
     31  O         28.0260   24.7770   30.8860 O.2    46  ASP46      -0.2867
     32  CB        26.4760   24.3190   33.3950 C.3    46  ASP46       0.1410
     33  CG        25.3670   24.1140   34.4300 C.2    46  ASP46       0.3668
     34  OD1       24.2630   24.6700   34.2840 O.co2  46  ASP46      -0.2456
     35  OD2       25.6170   23.3850   35.4180 O.co2  46  ASP46      -0.2456
     36  N         30.8130   26.8950   32.1160 N.3    48  GLN48      -0.1245
     37  CA        31.6440   26.7300   33.3100 C.3    48  GLN48       0.1566
     38  C         33.0650   27.2250   33.1340 C.2    48  GLN48       0.2260
     39  O         33.6240   27.2040   32.0370 O.2    48  GLN48      -0.2867
     40  CB        31.7300   25.2500   33.7100 C.3    48  GLN48       0.0367
     41  CG        30.3910   24.5600   33.8600 C.3    48  GLN48       0.0905
     42  CD        30.4850   23.1110   34.2770 C.2    48  GLN48       0.2608
     43  OE1       29.4670   22.4380   34.4380 O.2    48  GLN48      -0.2717
     44  NE2       31.7030   22.6210   34.4780 N.am   48  GLN48      -0.0878
     45  N         36.1180   21.0850   37.3410 N.3    52  SER52      -0.1202
     46  CA        36.3620   20.5450   38.6740 C.3    52  SER52       0.2020
     47  C         35.0600   20.3160   39.4300 C.2    52  SER52       0.2618
     48  O         34.0840   21.0480   39.2530 O.2    52  SER52      -0.2717
     49  CB        37.2480   21.4940   39.4770 C.3    52  SER52       0.2103
     50  OG        37.6840   20.8640   40.6690 O.3    52  SER52      -0.2182
     51  N         35.0550   19.3000   40.2820 N.am   53  VAL53      -0.1979
     52  CA        33.9770   19.1040   41.2420 C.3    53  VAL53       0.1595
     53  C         34.4370   19.4000   42.6750 C.2    53  VAL53       0.2287
     54  O         33.6590   19.2410   43.6070 O.2    53  VAL53      -0.2864
     55  CB        33.3570   17.6870   41.1520 C.3    53  VAL53       0.0276
     56  CG1       32.7380   17.4650   39.7690 C.3    53  VAL53       0.0022
     57  CG2       34.3890   16.6140   41.4790 C.3    53  VAL53       0.0022
     58  N         33.6470   22.9240   43.2370 N.3    56  ARG56      -0.1245
     59  CA        32.8260   22.8410   42.0370 C.3    56  ARG56       0.1563
     60  C         33.0910   24.0260   41.1320 C.2    56  ARG56       0.2260
     61  O         33.1510   25.1710   41.5910 O.2    56  ARG56      -0.2867
     62  CB        31.3560   22.7750   42.3960 C.3    56  ARG56       0.0307
     63  CG        31.0150   21.5140   43.1640 C.3    56  ARG56       0.0489
     64  CD        29.6100   21.5490   43.6480 C.3    56  ARG56       0.2205
     65  NE        28.6690   21.5630   42.5300 N.pl3  56  ARG56      -0.0865
     66  CZ        27.4260   22.0330   42.5920 C.cat  56  ARG56       0.5346
     67  NH1       26.9420   22.5620   43.7150 N.pl3  56  ARG56       0.1354
     68  NH2       26.6650   21.9940   41.5150 N.pl3  56  ARG56       0.1354
     69  N         29.8860   28.3420   37.6080 N.3    59  VAL59      -0.1245
     70  CA        28.9690   28.3070   36.4700 C.3    59  VAL59       0.1561
     71  C         28.5950   29.7480   36.1470 C.2    59  VAL59       0.2260
     72  O         27.7910   30.3610   36.8530 O.2    59  VAL59      -0.2867
     73  CB        27.7160   27.4560   36.7520 C.3    59  VAL59       0.0252
     74  CG1       26.7920   27.4540   35.5120 C.3    59  VAL59       0.0019
     75  CG2       28.1060   26.0250   37.1800 C.3    59  VAL59       0.0019
     76  N         23.9390   29.2760   34.0410 N.3    62  HIS62      -0.1241
     77  CA        23.1330   28.0590   34.2260 C.3    62  HIS62       0.1621
     78  C         21.8050   28.3890   33.5690 C.2    62  HIS62       0.2264
     79  O         21.1130   29.3010   34.0070 O.2    62  HIS62      -0.2867
     80  CB        22.9870   27.8020   35.7440 C.3    62  HIS62       0.0745
     81  CG        22.0470   26.7000   36.1520 C.ar   62  HIS62       0.0817
     82  ND1       22.3500   25.3590   36.0410 N.ar   62  HIS62      -0.2268
     83  CD2       20.8620   26.7580   36.8110 C.ar   62  HIS62       0.1154
     84  CE1       21.3720   24.6420   36.5750 C.ar   62  HIS62       0.1986
     85  NE2       20.4510   25.4680   37.0420 N.ar   62  HIS62      -0.2212
     86  N         18.3460   26.7010   32.6330 N.3    64  ASN64      -0.1240
     87  CA        17.6870   25.5310   33.2330 C.3    64  ASN64       0.1653
     88  C         16.1810   25.4890   32.9790 C.2    64  ASN64       0.2266
     89  O         15.3970   25.9340   33.8120 O.2    64  ASN64      -0.2867
     90  CB        18.0250   25.5430   34.7320 C.3    64  ASN64       0.1155
     91  CG        17.2720   24.5100   35.5700 C.2    64  ASN64       0.2627
     92  OD1       16.9450   24.7990   36.7290 O.2    64  ASN64      -0.2716
     93  ND2       17.0340   23.3170   35.0300 N.am   64  ASN64      -0.0877
     94  N         12.5700   24.0790   33.1020 N.3    66  ARG66      -0.1245
     95  CA        11.8240   23.2390   34.0470 C.3    66  ARG66       0.1563
     96  C         10.4210   23.0090   33.5090 C.2    66  ARG66       0.2260
     97  O          9.8310   23.9070   32.8930 O.2    66  ARG66      -0.2867
     98  CB        11.7790   23.8880   35.4230 C.3    66  ARG66       0.0307
     99  CG        13.1530   24.1370   36.0070 C.3    66  ARG66       0.0489
    100  CD        13.0910   24.6620   37.4280 C.3    66  ARG66       0.2205
    101  NE        14.4320   24.8810   37.9600 N.pl3  66  ARG66      -0.0865
    102  CZ        14.7030   25.3260   39.1850 C.cat  66  ARG66       0.5346
    103  NH1       13.7170   25.5940   40.0410 N.pl3  66  ARG66       0.1354
    104  NH2       15.9570   25.4890   39.5700 N.pl3  66  ARG66       0.1354
    105  N         14.7810   28.7460   34.4170 N.3    74  VAL74      -0.1245
    106  CA        15.5210   29.4030   35.4930 C.3    74  VAL74       0.1561
    107  C         16.9590   29.6240   35.0480 C.2    74  VAL74       0.2260
    108  O         17.5910   28.7060   34.5330 O.2    74  VAL74      -0.2867
    109  CB        15.4940   28.5580   36.7840 C.3    74  VAL74       0.0252
    110  CG1       16.4140   29.1580   37.8520 C.3    74  VAL74       0.0019
    111  CG2       14.0520   28.4370   37.2990 C.3    74  VAL74       0.0019
    112  N         20.8080   31.2480   36.4320 N.3    76  ASN76      -0.1240
    113  CA        21.5570   31.6770   37.6110 C.3    76  ASN76       0.1653
    114  C         23.0510   31.4980   37.3660 C.2    76  ASN76       0.2266
    115  O         23.4740   31.0800   36.2750 O.2    76  ASN76      -0.2867
    116  CB        21.0980   30.8650   38.8410 C.3    76  ASN76       0.1155
    117  CG        21.2810   31.6030   40.1850 C.2    76  ASN76       0.2627
    118  OD1       21.9900   32.6020   40.3010 O.2    76  ASN76      -0.2716
    119  ND2       20.6390   31.0590   41.2110 N.am   76  ASN76      -0.0877
    120  N         26.7200   30.2280   39.5940 N.3    78  LEU78      -0.1245
    121  CA        27.3530   29.5790   40.7460 C.3    78  LEU78       0.1561
    122  C         28.7690   30.1430   40.8770 C.2    78  LEU78       0.2260
    123  O         29.5740   29.9920   39.9590 O.2    78  LEU78      -0.2867
    124  CB        27.4000   28.0600   40.5410 C.3    78  LEU78       0.0270
    125  CG        27.8630   27.2360   41.7570 C.3    78  LEU78       0.0019
    126  CD1       26.7100   27.0620   42.7340 C.3    78  LEU78       0.0001
    127  CD2       28.4240   25.8740   41.3350 C.3    78  LEU78       0.0001
    128  N         25.0300   29.5690   44.8540 N.3    83  TRP83      -0.1241
    129  CA        24.1070   30.1300   43.8730 C.3    83  TRP83       0.1605
    130  C         23.7750   31.5770   44.1840 C.2    83  TRP83       0.2264
    131  O         23.6500   31.9720   45.3480 O.2    83  TRP83      -0.2867
    132  CB        22.8060   29.3380   43.8170 C.3    83  TRP83       0.0550
    133  CG        22.9480   28.0090   43.1660 C.ar   83  TRP83       0.0003
    134  CD1       22.8800   26.7920   43.7670 C.ar   83  TRP83       0.0946
    135  CD2       23.2140   27.7610   41.7790 C.ar   83  TRP83       0.0152
    136  NE1       23.0710   25.7860   42.8390 N.ar   83  TRP83      -0.2442
    137  CE2       23.2790   26.3610   41.6100 C.ar   83  TRP83       0.0810
    138  CE3       23.3800   28.5860   40.6620 C.ar   83  TRP83       0.0012
    139  CZ2       23.5250   25.7660   40.3700 C.ar   83  TRP83       0.0191
    140  CZ3       23.6280   27.9950   39.4360 C.ar   83  TRP83       0.0001
    141  CH2       23.6900   26.5980   39.2970 C.ar   83  TRP83       0.0015
    142  N         18.1520   33.8990   41.4310 N.3    86  GLU86      -0.1245
    143  CA        17.5560   33.3310   40.2260 C.3    86  GLU86       0.1567
    144  C         16.8940   34.3870   39.3660 C.2    86  GLU86       0.2260
    145  O         16.3000   35.3460   39.8800 O.2    86  GLU86      -0.2867
    146  CB        16.4960   32.2900   40.5840 C.3    86  GLU86       0.0388
    147  CG        17.0800   31.0350   41.1750 C.3    86  GLU86       0.1160
    148  CD        16.0680   29.9320   41.4150 C.2    86  GLU86       0.3649
    149  OE1       14.8450   30.2130   41.4570 O.co2  86  GLU86      -0.2457
    150  OE2       16.5070   28.7740   41.5840 O.co2  86  GLU86      -0.2457
    151  N         23.3100   18.6600   31.3050 N.3   138  TYR138     -0.1227
    152  CA        22.9350   17.7620   32.3750 C.3   138  TYR138      0.1736
    153  C         21.4240   17.5990   32.4460 C.2   138  TYR138      0.2596
    154  O         20.6710   18.4680   32.0060 O.2   138  TYR138     -0.2718
    155  CB        23.4090   18.3340   33.7080 C.3   138  TYR138      0.0548
    156  CG        24.8650   18.7200   33.7840 C.ar  138  TYR138     -0.0200
    157  CD1       25.8620   17.7740   33.6320 C.ar  138  TYR138     -0.0009
    158  CD2       25.2480   20.0340   34.0340 C.ar  138  TYR138     -0.0009
    159  CE1       27.2050   18.1200   33.7380 C.ar  138  TYR138      0.0417
    160  CE2       26.5850   20.3920   34.1380 C.ar  138  TYR138      0.0417
    161  CZ        27.5630   19.4350   33.9820 C.ar  138  TYR138      0.1957
    162  OH        28.8920   19.7820   34.1040 O.3   138  TYR138     -0.2866
    163  N         20.9870   16.4930   33.0380 N.am  139  GLY139     -0.1957
    164  CA        19.5710   16.2610   33.3170 C.3   139  GLY139      0.1869
    165  C         18.8590   15.4770   32.2330 C.2   139  GLY139      0.2309
    166  O         19.4730   14.7540   31.4410 O.2   139  GLY139     -0.2863
@<TRIPOS>BOND
     1     4     3    2
     2     3     2    1
     3    31    30    2
     4    22    21    2
     5    21    20    1
     6     1     2    1
     7     1     7    1
     8   151   152    1
     9    28    29    1
    10     2     5    1
    11   166   165    2
    12    30    29    1
    13   154   153    2
    14    39    38    2
    15    19    20    1
    16    20    23    1
    17    36    37    1
    18    29    32    1
    19   165   164    1
    20   152   153    1
    21   152   155    1
    22   153   163   am
    23     7     6    1
    24    86    87    1
    25     5     6    1
    26    97    96    2
    27    88    87    1
    28    88    89    2
    29   163   164    1
    30    94    95    1
    31    38    37    1
    32    87    90    1
    33    37    40    1
    34    10    11    2
    35    10     9    1
    36    32    33    1
    37    96    95    1
    38    23    24    1
    39    78    79    2
    40    78    77    1
    41   157   159   ar
    42   157   156   ar
    43   155   156    1
    44    40    41    1
    45   159   161   ar
    46   156   158   ar
    47    41    42    1
    48   161   162    1
    49   161   160   ar
    50   158   160   ar
    51    76    77    1
    52     9     8    1
    53     9    12    1
    54    95    98    1
    55    77    80    1
    56    24    25    1
    57    42    43    2
    58    42    44   am
    59    34    33   ar
    60   105   106    1
    61    33    35   ar
    62   108   107    2
    63    90    91    1
    64    26    25    2
    65    93    91   am
    66   107   106    1
    67    25    27   am
    68    12    13    1
    69    98    99    1
    70   106   109    1
    71    74    73    1
    72    91    92    2
    73    80    81    1
    74    99   100    1
    75    82    81   ar
    76    82    84   ar
    77    71    70    1
    78    71    72    2
    79    81    83   ar
    80   115   114    2
    81   112   113    1
    82    70    73    1
    83    70    69    1
    84    13    14    1
    85    84    85   ar
    86    73    75    1
    87   109   111    1
    88   109   110    1
    89    83    85   ar
    90    45    46    1
    91   114   113    1
    92    15    14    1
    93    15    16    2
    94   100   101    1
    95   113   116    1
    96    18    16    1
    97   101   102    2
    98    16    17    1
    99    46    47    1
   100    46    49    1
   101   116   117    1
   102   102   104    1
   103   102   103    1
   104    48    47    2
   105   141   140   ar
   106   141   139   ar
   107   144   145    2
   108   144   143    1
   109    47    51   am
   110   140   138   ar
   111    49    50    1
   112   120   121    1
   113    56    55    1
   114   123   122    2
   115   117   118    2
   116   117   119   am
   117   143   146    1
   118   143   142    1
   119    51    52    1
   120   139   137   ar
   121   124   121    1
   122   124   125    1
   123   146   147    1
   124   138   135   ar
   125   121   122    1
   126    60    61    2
   127    60    59    1
   128    55    52    1
   129    55    57    1
   130   147   148    1
   131    52    53    1
   132   127   125    1
   133   148   149   ar
   134   148   150   ar
   135    68    66    1
   136   137   135   ar
   137   137   136   ar
   138   125   126    1
   139   135   133   ar
   140    59    62    1
   141    59    58    1
   142    62    63    1
   143    65    66    2
   144    65    64    1
   145    66    67    1
   146    53    54    2
   147   136   134   ar
   148    63    64    1
   149   133   134   ar
   150   133   132    1
   151   132   129    1
   152   129   130    1
   153   129   128    1
   154   130   131    2
