@<TRIPOS>MOLECULE
tmp/3apcA00.pdb
 191 180 0 0 0
SMALL
GASTEIGER

@<TRIPOS>ATOM
      1  N        118.8580   17.4870   40.9270 N.3   558  MET558     -0.1245
      2  CA       118.6560   18.3660   39.7730 C.3   558  MET558      0.1570
      3  C        117.8610   19.6020   40.1750 C.2   558  MET558      0.2261
      4  O        116.9340   19.5150   40.9780 O.2   558  MET558     -0.2867
      5  CB       117.9530   17.6130   38.6430 C.3   558  MET558      0.0387
      6  CG       118.7890   16.4750   38.0640 C.3   558  MET558      0.0595
      7  SD       117.9070   15.3480   36.9600 S.3   558  MET558     -0.1393
      8  CE       117.4990   16.4210   35.5770 C.3   558  MET558      0.0692
      9  N        115.4160   21.3610   39.1870 N.3   560  SER560     -0.1202
     10  CA       114.2450   21.3580   38.3130 C.3   560  SER560      0.2020
     11  C        113.0460   20.7650   39.0410 C.2   560  SER560      0.2618
     12  O        113.2050   20.0040   39.9970 O.2   560  SER560     -0.2717
     13  CB       114.5260   20.5440   37.0450 C.3   560  SER560      0.2103
     14  OG       115.6780   21.0140   36.3590 O.3   560  SER560     -0.2182
     15  N        111.8530   21.1180   38.5710 N.am  561  LYS561     -0.1979
     16  CA       110.5880   20.6930   39.1860 C.3   561  LYS561      0.1596
     17  C        110.6170   19.2570   39.7250 C.2   561  LYS561      0.2287
     18  O        110.9180   18.3210   38.9870 O.2   561  LYS561     -0.2864
     19  CB       109.4290   20.8610   38.1850 C.3   561  LYS561      0.0298
     20  CG       109.5740   20.0430   36.9060 C.3   561  LYS561      0.0038
     21  CD       108.9280   20.7330   35.7130 C.3   561  LYS561      0.0206
     22  CE       108.7940   19.7880   34.5180 C.3   561  LYS561      0.1093
     23  NZ       110.0940   19.3970   33.9030 N.3   561  LYS561     -0.1314
     24  N        114.4210   15.7750   40.8520 N.3   564  PRO564     -0.2116
     25  CA       114.9460   14.4640   40.4860 C.3   564  PRO564      0.1372
     26  C        116.4140   14.3370   40.8570 C.2   564  PRO564      0.2244
     27  O        117.1190   15.3450   40.9230 O.2   564  PRO564     -0.2868
     28  CB       114.7810   14.4190   38.9590 C.3   564  PRO564      0.0268
     29  CG       114.5960   15.8210   38.5340 C.3   564  PRO564      0.0207
     30  CD       113.9620   16.5370   39.6780 C.3   564  PRO564      0.0892
     31  N        120.0530   13.2130   39.6440 N.3   566  TRP566     -0.1241
     32  CA       120.9250   12.9080   38.5110 C.3   566  TRP566      0.1605
     33  C        122.0010   11.9900   39.0440 C.2   566  TRP566      0.2264
     34  O        122.9060   12.4470   39.7250 O.2   566  TRP566     -0.2867
     35  CB       121.5530   14.1950   37.9740 C.3   566  TRP566      0.0550
     36  CG       122.5750   14.0320   36.8730 C.ar  566  TRP566      0.0003
     37  CD1      123.8490   13.5580   36.9950 C.ar  566  TRP566      0.0946
     38  CD2      122.4210   14.4000   35.4970 C.ar  566  TRP566      0.0152
     39  NE1      124.4810   13.5800   35.7840 N.ar  566  TRP566     -0.2442
     40  CE2      123.6290   14.0960   34.8450 C.ar  566  TRP566      0.0810
     41  CE3      121.3700   14.9430   34.7490 C.ar  566  TRP566      0.0012
     42  CZ2      123.8230   14.3210   33.4800 C.ar  566  TRP566      0.0191
     43  CZ3      121.5610   15.1610   33.3920 C.ar  566  TRP566      0.0001
     44  CH2      122.7790   14.8490   32.7740 C.ar  566  TRP566      0.0015
     45  N        118.4630    9.2740   35.5310 N.3   585  ILE585     -0.1245
     46  CA       117.6480   10.1910   36.3220 C.3   585  ILE585      0.1561
     47  C        116.5760    9.3940   37.0660 C.2   585  ILE585      0.2260
     48  O        115.8970    8.5690   36.4620 O.2   585  ILE585     -0.2867
     49  CB       116.9470   11.2380   35.4570 C.3   585  ILE585      0.0252
     50  CG1      117.9390   12.2870   34.9510 C.3   585  ILE585      0.0019
     51  CG2      115.8440   11.9220   36.2390 C.3   585  ILE585      0.0019
     52  CD1      117.3090   13.3180   33.9850 C.3   585  ILE585      0.0001
     53  N        113.1020   10.0140   39.2640 N.3   587  LYS587     -0.1245
     54  CA       112.1280   11.0940   39.4730 C.3   587  LYS587      0.1561
     55  C        110.8380   10.6090   40.1280 C.2   587  LYS587      0.2260
     56  O        110.3460    9.5130   39.8260 O.2   587  LYS587     -0.2867
     57  CB       111.8030   11.7870   38.1410 C.3   587  LYS587      0.0271
     58  CG       110.9540   13.0480   38.2790 C.3   587  LYS587      0.0035
     59  CD       111.0190   13.9420   37.0290 C.3   587  LYS587      0.0206
     60  CE       110.3340   15.3010   37.2620 C.3   587  LYS587      0.1093
     61  NZ       110.7500   16.3770   36.2940 N.3   587  LYS587     -0.1314
     62  N        106.1670   13.0540   38.1950 N.3   590  ASP590     -0.1239
     63  CA       105.6760   12.7980   36.8430 C.3   590  ASP590      0.1674
     64  C        105.1880   11.3600   36.7180 C.2   590  ASP590      0.2266
     65  O        105.7710   10.4520   37.3090 O.2   590  ASP590     -0.2867
     66  CB       106.7820   13.0620   35.8140 C.3   590  ASP590      0.1410
     67  CG       107.0320   14.5420   35.5890 C.2   590  ASP590      0.3668
     68  OD1      106.2660   15.3640   36.1290 O.co2 590  ASP590     -0.2456
     69  OD2      107.9900   14.8880   34.8660 O.co2 590  ASP590     -0.2456
     70  N        105.4700    8.5130   34.7710 N.3   592  LEU592     -0.1245
     71  CA       106.3570    7.9680   33.7450 C.3   592  LEU592      0.1561
     72  C        105.7720    6.7820   32.9810 C.2   592  LEU592      0.2260
     73  O        106.3870    6.2980   32.0440 O.2   592  LEU592     -0.2867
     74  CB       107.6980    7.5640   34.3590 C.3   592  LEU592      0.0270
     75  CG       108.5200    8.6950   34.9760 C.3   592  LEU592      0.0019
     76  CD1      109.7950    8.1230   35.5540 C.3   592  LEU592      0.0001
     77  CD2      108.8360    9.7930   33.9610 C.3   592  LEU592      0.0001
     78  N        105.1920    8.4250   29.6510 N.3   595  ASP595     -0.1239
     79  CA       106.4180    8.5540   28.8760 C.3   595  ASP595      0.1674
     80  C        106.7820    7.2260   28.2220 C.2   595  ASP595      0.2266
     81  O        107.1730    7.1930   27.0610 O.2   595  ASP595     -0.2867
     82  CB       107.5750    9.0620   29.7410 C.3   595  ASP595      0.1410
     83  CG       107.3180   10.4580   30.3110 C.2   595  ASP595      0.3668
     84  OD1      108.1900   11.3480   30.1630 O.co2 595  ASP595     -0.2456
     85  OD2      106.2330   10.6610   30.8970 O.co2 595  ASP595     -0.2456
     86  N        115.0940    7.6380   24.2590 N.3   621  TYR621     -0.1241
     87  CA       115.8660    7.1570   25.4010 C.3   621  TYR621      0.1605
     88  C        115.0490    6.2180   26.3020 C.2   621  TYR621      0.2264
     89  O        113.8200    6.1720   26.2340 O.2   621  TYR621     -0.2867
     90  CB       116.3790    8.3490   26.2280 C.3   621  TYR621      0.0534
     91  CG       115.2830    9.3110   26.6170 C.ar  621  TYR621     -0.0201
     92  CD1      114.5000    9.0960   27.7480 C.ar  621  TYR621     -0.0009
     93  CD2      115.0020   10.4260   25.8270 C.ar  621  TYR621     -0.0009
     94  CE1      113.4660    9.9800   28.0880 C.ar  621  TYR621      0.0417
     95  CE2      113.9830   11.3220   26.1680 C.ar  621  TYR621      0.0417
     96  CZ       113.2230   11.0950   27.2930 C.ar  621  TYR621      0.1957
     97  OH       112.2190   11.9750   27.6010 O.3   621  TYR621     -0.2866
     98  N        114.9140    7.3530   34.2760 N.3   633  ILE633     -0.1231
     99  CA       115.0700    7.8950   32.9320 C.3   633  ILE633      0.1692
    100  C        116.5290    7.7980   32.4920 C.2   633  ILE633      0.2592
    101  O        117.4170    8.2670   33.2040 O.2   633  ILE633     -0.2718
    102  CB       114.6670    9.3800   32.9000 C.3   633  ILE633      0.0266
    103  CG1      113.1660    9.5550   33.1630 C.3   633  ILE633      0.0019
    104  CG2      115.0420    9.9970   31.5690 C.3   633  ILE633      0.0020
    105  CD1      112.7750   10.9720   33.5100 C.3   633  ILE633      0.0001
    106  N        116.7810    7.1920   31.3330 N.am  634  GLU634     -0.1966
    107  CA       118.1360    7.1440   30.7670 C.3   634  GLU634      0.1733
    108  C        118.6600    8.5510   30.4780 C.2   634  GLU634      0.2616
    109  O        117.9120    9.4130   29.9910 O.2   634  GLU634     -0.2715
    110  CB       118.1420    6.3570   29.4470 C.3   634  GLU634      0.0429
    111  CG       119.5170    6.2980   28.7340 C.3   634  GLU634      0.1163
    112  CD       119.4640    5.6620   27.3340 C.2   634  GLU634      0.3649
    113  OE1      118.3530    5.4000   26.8010 O.co2 634  GLU634     -0.2457
    114  OE2      120.5520    5.4410   26.7530 O.co2 634  GLU634     -0.2457
    115  N        119.9440    8.7750   30.7510 N.am  635  ILE635     -0.1963
    116  CA       120.5980   10.0270   30.3640 C.3   635  ILE635      0.1727
    117  C        121.3000    9.8910   29.0120 C.2   635  ILE635      0.2616
    118  O        122.3200    9.2060   28.9070 O.2   635  ILE635     -0.2715
    119  CB       121.6210   10.4820   31.4130 C.3   635  ILE635      0.0290
    120  CG1      120.9200   10.7460   32.7530 C.3   635  ILE635      0.0022
    121  CG2      122.3260   11.7400   30.9380 C.3   635  ILE635      0.0023
    122  CD1      121.8410   11.2660   33.8660 C.3   635  ILE635      0.0001
    123  N        120.7430   10.5340   27.9850 N.am  636  VAL636     -0.1977
    124  CA       121.4230   10.6650   26.6980 C.3   636  VAL636      0.1596
    125  C        122.6100   11.5920   26.9030 C.2   636  VAL636      0.2287
    126  O        122.4350   12.7500   27.2740 O.2   636  VAL636     -0.2864
    127  CB       120.5240   11.3020   25.6130 C.3   636  VAL636      0.0276
    128  CG1      121.3050   11.4770   24.3000 C.3   636  VAL636      0.0022
    129  CG2      119.2510   10.4830   25.3910 C.3   636  VAL636      0.0022
    130  N        124.4060   16.2420   25.9450 N.3   639  ALA639     -0.1231
    131  CA       123.2080   16.9590   25.4900 C.3   639  ALA639      0.1694
    132  C        122.8320   18.1240   26.3970 C.2   639  ALA639      0.2593
    133  O        123.1420   18.1440   27.5920 O.2   639  ALA639     -0.2718
    134  CB       122.0360   16.0050   25.3510 C.3   639  ALA639      0.0304
    135  N        122.1670   19.1000   25.7970 N.am  640  THR640     -0.1939
    136  CA       121.7190   20.2850   26.4930 C.3   640  THR640      0.2028
    137  C        120.4220   20.7040   25.8310 C.2   640  THR640      0.2642
    138  O        120.1420   20.2980   24.7010 O.2   640  THR640     -0.2714
    139  CB       122.7810   21.4150   26.4220 C.3   640  THR640      0.1808
    140  OG1      122.2870   22.5940   27.0720 O.3   640  THR640     -0.2208
    141  CG2      123.1370   21.7430   24.9770 C.3   640  THR640      0.0379
    142  N        119.6120   21.4880   26.5320 N.am  641  THR641     -0.1950
    143  CA       118.3200   21.9040   25.9780 C.3   641  THR641      0.1897
    144  C        118.5130   23.0570   24.9780 C.2   641  THR641      0.2313
    145  O        119.5640   23.6960   24.9510 O.2   641  THR641     -0.2863
    146  CB       117.3270   22.2820   27.0970 C.3   641  THR641      0.1794
    147  OG1      117.8400   23.3780   27.8620 O.3   641  THR641     -0.2208
    148  CG2      117.0880   21.0790   28.0250 C.3   641  THR641      0.0378
    149  N        112.6590   24.3860   26.3020 N.3   704  ASP704     -0.1239
    150  CA       113.3440   23.8270   27.4710 C.3   704  ASP704      0.1674
    151  C        113.1700   22.2920   27.4810 C.2   704  ASP704      0.2266
    152  O        113.9550   21.5690   28.0980 O.2   704  ASP704     -0.2867
    153  CB       112.7700   24.4580   28.7550 C.3   704  ASP704      0.1410
    154  CG       113.5940   24.1530   29.9940 C.2   704  ASP704      0.3668
    155  OD1      114.8370   24.2620   29.9370 O.co2 704  ASP704     -0.2456
    156  OD2      112.9850   23.8200   31.0370 O.co2 704  ASP704     -0.2456
    157  N        115.8930   18.9480   23.2000 N.3   707  MET707     -0.1245
    158  CA       117.3260   18.8580   23.4320 C.3   707  MET707      0.1570
    159  C        118.0750   18.6360   22.1320 C.2   707  MET707      0.2261
    160  O        117.4740   18.3970   21.0950 O.2   707  MET707     -0.2867
    161  CB       117.6540   17.7310   24.4190 C.3   707  MET707      0.0387
    162  CG       117.0490   17.9030   25.8050 C.3   707  MET707      0.0595
    163  SD       118.1470   17.3010   27.1170 S.3   707  MET707     -0.1393
    164  CE       116.9630   16.4510   28.1370 C.3   707  MET707      0.0692
    165  N        116.2940   15.9400   20.0380 N.3   715  PHE715     -0.1241
    166  CA       115.2930   15.0460   20.6420 C.3   715  PHE715      0.1605
    167  C        114.5170   15.7000   21.7690 C.2   715  PHE715      0.2264
    168  O        115.0900   16.4280   22.5740 O.2   715  PHE715     -0.2867
    169  CB       115.9410   13.7720   21.1780 C.3   715  PHE715      0.0534
    170  CG       116.9180   14.0090   22.3000 C.ar  715  PHE715     -0.0203
    171  CD1      118.2050   14.4470   22.0390 C.ar  715  PHE715     -0.0042
    172  CD2      116.5600   13.7710   23.6090 C.ar  715  PHE715     -0.0042
    173  CE1      119.1110   14.6540   23.0710 C.ar  715  PHE715     -0.0003
    174  CE2      117.4570   13.9740   24.6390 C.ar  715  PHE715     -0.0003
    175  CZ       118.7310   14.4160   24.3740 C.ar  715  PHE715     -0.0000
    176  N        111.8510   15.6610   25.2280 N.3   717  ILE717     -0.1231
    177  CA       111.8050   14.9820   26.5330 C.3   717  ILE717      0.1692
    178  C        110.5050   15.2790   27.2750 C.2   717  ILE717      0.2592
    179  O        109.7370   16.1400   26.8650 O.2   717  ILE717     -0.2718
    180  CB       112.9730   15.3720   27.4500 C.3   717  ILE717      0.0266
    181  CG1      113.0540   16.8950   27.6360 C.3   717  ILE717      0.0019
    182  CG2      114.2750   14.8270   26.9300 C.3   717  ILE717      0.0020
    183  CD1      113.8560   17.3030   28.8980 C.3   717  ILE717      0.0001
    184  N        110.2760   14.5500   28.3630 N.am  718  ASP718     -0.1974
    185  CA       109.1630   14.7850   29.2850 C.3   718  ASP718      0.1709
    186  C        107.8130   14.8340   28.5870 C.2   718  ASP718      0.2293
    187  O        107.3370   15.8950   28.2070 O.2   718  ASP718     -0.2864
    188  CB       109.4030   16.0590   30.0910 C.3   718  ASP718      0.1436
    189  CG       108.5350   16.1360   31.3400 C.2   718  ASP718      0.3671
    190  OD1      107.3700   15.6640   31.3150 O.co2 718  ASP718     -0.2456
    191  OD2      109.0280   16.6710   32.3560 O.co2 718  ASP718     -0.2456
@<TRIPOS>BOND
     1   165   166    1
     2   166   169    1
     3   166   167    1
     4   160   159    2
     5   169   170    1
     6   167   168    2
     7   171   170   ar
     8   171   173   ar
     9   159   158    1
    10   170   172   ar
    11   173   175   ar
    12   157   158    1
    13   158   161    1
    14   172   174   ar
    15    86    87    1
    16   128   127    1
    17   175   174   ar
    18   161   162    1
    19   138   137    2
    20   145   144    2
    21   141   139    1
    22   144   143    1
    23   176   177    1
    24   134   131    1
    25   129   127    1
    26    87    90    1
    27    87    88    1
    28   131   130    1
    29   131   132    1
    30   127   124    1
    31   135   132   am
    32   135   136    1
    33   162   163    1
    34    93    95   ar
    35    93    91   ar
    36   137   136    1
    37   137   142   am
    38   143   142    1
    39   143   146    1
    40    95    96   ar
    41    90    91    1
    42    89    88    2
    43   149   150    1
    44   132   133    2
    45   139   136    1
    46   139   140    1
    47   177   178    1
    48   177   180    1
    49    91    92   ar
    50   124   125    1
    51   124   123    1
    52   114   112   ar
    53   113   112   ar
    54   179   178    2
    55   125   126    2
    56   182   180    1
    57    81    80    2
    58   146   147    1
    59   146   148    1
    60   163   164    1
    61   178   184   am
    62    96    97    1
    63    96    94   ar
    64   112   111    1
    65   180   181    1
    66   150   151    1
    67   150   153    1
    68   151   152    2
    69   181   183    1
    70    92    94   ar
    71   123   117   am
    72   187   186    2
    73    80    79    1
    74   184   185    1
    75   186   185    1
    76   111   110    1
    77   153   154    1
    78    79    78    1
    79    79    82    1
    80   118   117    2
    81   117   116    1
    82   185   188    1
    83   110   107    1
    84    82    83    1
    85   155   154   ar
    86   109   108    2
    87   154   156   ar
    88   188   189    1
    89    84    83   ar
    90    83    85   ar
    91   116   115    1
    92   116   119    1
    93   108   115   am
    94   108   107    1
    95   107   106    1
    96   121   119    1
    97   190   189   ar
    98   106   100   am
    99   189   191   ar
   100   119   120    1
   101   104   102    1
   102    73    72    2
   103   100    99    1
   104   100   101    2
   105   120   122    1
   106    44    43   ar
   107    44    42   ar
   108   102    99    1
   109   102   103    1
   110    99    98    1
   111    72    71    1
   112   103   105    1
   113    43    41   ar
   114    42    40   ar
   115    71    74    1
   116    71    70    1
   117    23    22    1
   118    77    75    1
   119    52    50    1
   120    74    75    1
   121    22    21    1
   122    41    38   ar
   123    40    38   ar
   124    40    39   ar
   125    69    67   ar
   126    50    49    1
   127    75    76    1
   128    49    51    1
   129    49    46    1
   130    38    36   ar
   131    45    46    1
   132     8     7    1
   133    67    66    1
   134    67    68   ar
   135    21    20    1
   136    39    37   ar
   137    66    63    1
   138    61    60    1
   139    46    47    1
   140    14    13    1
   141    48    47    2
   142    64    63    1
   143    64    65    2
   144    63    62    1
   145    36    37   ar
   146    36    35    1
   147    20    19    1
   148     7     6    1
   149    59    60    1
   150    59    58    1
   151    13    10    1
   152    35    32    1
   153     6     5    1
   154    57    58    1
   155    57    54    1
   156    19    16    1
   157    10    11    1
   158    10     9    1
   159    32    33    1
   160    32    31    1
   161    29    28    1
   162    29    30    1
   163    15    11   am
   164    15    16    1
   165     5     2    1
   166    28    25    1
   167    18    17    2
   168    11    12    2
   169    33    34    2
   170    16    17    1
   171    53    54    1
   172    54    55    1
   173    30    24    1
   174     2     3    1
   175     2     1    1
   176    56    55    2
   177     3     4    2
   178    25    24    1
   179    25    26    1
   180    26    27    2
