@<TRIPOS>MOLECULE
tmp/3apdA00.pdb
 199 187 0 0 0
SMALL
GASTEIGER

@<TRIPOS>ATOM
      1  N         47.3380   17.6280   40.5130 N.3   557  MET557     -0.1245
      2  CA        47.1260   18.5630   39.4020 C.3   557  MET557      0.1570
      3  C         46.2220   19.7380   39.7890 C.2   557  MET557      0.2261
      4  O         45.4860   19.6650   40.7740 O.2   557  MET557     -0.2867
      5  CB        46.5450   17.8050   38.2030 C.3   557  MET557      0.0387
      6  CG        47.4680   16.6940   37.6790 C.3   557  MET557      0.0595
      7  SD        46.7020   15.4540   36.5970 S.3   557  MET557     -0.1393
      8  CE        45.9790   16.4880   35.3220 C.3   557  MET557      0.0692
      9  N         43.3780   21.1890   38.9710 N.3   559  SER559     -0.1217
     10  CA        41.9430   21.2430   38.6630 C.3   559  SER559      0.1889
     11  C         41.1750   21.4850   39.9700 C.2   559  SER559      0.2288
     12  O         41.7840   21.5540   41.0390 O.2   559  SER559     -0.2866
     13  CB        41.4950   19.9300   38.0110 C.3   559  SER559      0.2089
     14  OG        40.1010   19.7070   38.1500 O.3   559  SER559     -0.2183
     15  N         43.1000   15.8240   40.5790 N.3   563  PRO563     -0.2116
     16  CA        43.5490   14.4650   40.2730 C.3   563  PRO563      0.1372
     17  C         44.9990   14.2480   40.6470 C.2   563  PRO563      0.2244
     18  O         45.7240   15.2090   40.9130 O.2   563  PRO563     -0.2868
     19  CB        43.3830   14.3590   38.7540 C.3   563  PRO563      0.0268
     20  CG        43.2670   15.7350   38.2620 C.3   563  PRO563      0.0207
     21  CD        42.7340   16.5760   39.3650 C.3   563  PRO563      0.0892
     22  N         48.5930   13.0380   39.3310 N.3   565  TRP565     -0.1241
     23  CA        49.5420   12.6960   38.2770 C.3   565  TRP565      0.1605
     24  C         50.5840   11.7760   38.8850 C.2   565  TRP565      0.2264
     25  O         51.3250   12.1850   39.7620 O.2   565  TRP565     -0.2867
     26  CB        50.1970   13.9650   37.7380 C.3   565  TRP565      0.0550
     27  CG        51.2300   13.7460   36.6660 C.ar  565  TRP565      0.0003
     28  CD1       52.4580   13.1710   36.8130 C.ar  565  TRP565      0.0946
     29  CD2       51.1350   14.1380   35.2940 C.ar  565  TRP565      0.0152
     30  NE1       53.1180   13.1620   35.6190 N.ar  565  TRP565     -0.2442
     31  CE2       52.3320   13.7520   34.6680 C.ar  565  TRP565      0.0810
     32  CE3       50.1480   14.7710   34.5310 C.ar  565  TRP565      0.0012
     33  CZ2       52.5780   13.9800   33.3160 C.ar  565  TRP565      0.0191
     34  CZ3       50.3900   14.9980   33.1870 C.ar  565  TRP565      0.0001
     35  CH2       51.5970   14.6040   32.5930 C.ar  565  TRP565      0.0015
     36  N         47.1090    8.9280   35.3680 N.3   584  ILE584     -0.1245
     37  CA        46.3070    9.8850   36.1510 C.3   584  ILE584      0.1561
     38  C         45.1950    9.1440   36.9120 C.2   584  ILE584      0.2260
     39  O         44.4810    8.3320   36.3280 O.2   584  ILE584     -0.2867
     40  CB        45.6310   10.9500   35.2860 C.3   584  ILE584      0.0252
     41  CG1       46.6510   11.9100   34.6760 C.3   584  ILE584      0.0019
     42  CG2       44.6280   11.7400   36.1100 C.3   584  ILE584      0.0019
     43  CD1       45.9970   13.0030   33.8010 C.3   584  ILE584      0.0001
     44  N         41.7810    9.8980   39.1630 N.3   586  LYS586     -0.1245
     45  CA        40.8620   11.0130   39.3540 C.3   586  LYS586      0.1561
     46  C         39.5690   10.5540   40.0240 C.2   586  LYS586      0.2260
     47  O         39.0500    9.4610   39.7510 O.2   586  LYS586     -0.2867
     48  CB        40.5690   11.6830   38.0050 C.3   586  LYS586      0.0271
     49  CG        39.8680   13.0240   38.1010 C.3   586  LYS586      0.0035
     50  CD        39.8250   13.7650   36.7660 C.3   586  LYS586      0.0206
     51  CE        39.4070   15.2350   36.9700 C.3   586  LYS586      0.1093
     52  NZ        39.1690   16.0030   35.6970 N.3   586  LYS586     -0.1314
     53  N         34.9530   12.7430   37.9560 N.3   589  ASP589     -0.1239
     54  CA        34.4440   12.5360   36.6150 C.3   589  ASP589      0.1674
     55  C         33.8940   11.1280   36.5220 C.2   589  ASP589      0.2266
     56  O         34.4800   10.1860   37.0590 O.2   589  ASP589     -0.2867
     57  CB        35.5560   12.7430   35.5800 C.3   589  ASP589      0.1410
     58  CG        35.8790   14.2030   35.3640 C.2   589  ASP589      0.3668
     59  OD1       34.9600   15.0330   35.4980 O.co2 589  ASP589     -0.2456
     60  OD2       37.0410   14.5250   35.0470 O.co2 589  ASP589     -0.2456
     61  N         34.0830    8.4010   34.5120 N.3   591  LEU591     -0.1245
     62  CA        34.9350    7.8720   33.4410 C.3   591  LEU591      0.1561
     63  C         34.3720    6.6150   32.7940 C.2   591  LEU591      0.2260
     64  O         35.0820    5.9310   32.0640 O.2   591  LEU591     -0.2867
     65  CB        36.3350    7.5390   33.9670 C.3   591  LEU591      0.0270
     66  CG        37.1270    8.6440   34.6240 C.3   591  LEU591      0.0019
     67  CD1       38.4020    8.0370   35.1860 C.3   591  LEU591      0.0001
     68  CD2       37.4200    9.8070   33.6590 C.3   591  LEU591      0.0001
     69  N         33.7920    8.3080   29.5060 N.3   594  ASP594     -0.1239
     70  CA        35.0630    8.3420   28.7800 C.3   594  ASP594      0.1674
     71  C         35.3960    6.9820   28.1470 C.2   594  ASP594      0.2266
     72  O         35.9370    6.9210   27.0560 O.2   594  ASP594     -0.2867
     73  CB        36.2100    8.7730   29.6920 C.3   594  ASP594      0.1410
     74  CG        36.1030   10.2280   30.1340 C.2   594  ASP594      0.3668
     75  OD1       37.0480   11.0030   29.8520 O.co2 594  ASP594     -0.2456
     76  OD2       35.0870   10.5980   30.7660 O.co2 594  ASP594     -0.2456
     77  N         43.6320    7.3290   24.1860 N.3   620  TYR620     -0.1241
     78  CA        44.4150    6.8050   25.3110 C.3   620  TYR620      0.1605
     79  C         43.6040    5.8490   26.1980 C.2   620  TYR620      0.2264
     80  O         42.3830    5.7630   26.0870 O.2   620  TYR620     -0.2867
     81  CB        44.9420    7.9670   26.1610 C.3   620  TYR620      0.0534
     82  CG        43.8700    8.9820   26.5080 C.ar  620  TYR620     -0.0201
     83  CD1       42.9420    8.7420   27.5250 C.ar  620  TYR620     -0.0009
     84  CD2       43.7600   10.1700   25.7940 C.ar  620  TYR620     -0.0009
     85  CE1       41.9390    9.6700   27.8210 C.ar  620  TYR620      0.0417
     86  CE2       42.7710   11.1050   26.0920 C.ar  620  TYR620      0.0417
     87  CZ        41.8660   10.8480   27.1060 C.ar  620  TYR620      0.1957
     88  OH        40.8970   11.7760   27.3880 O.3   620  TYR620     -0.2866
     89  N         43.4720    7.1520   34.1330 N.3   632  ILE632     -0.1231
     90  CA        43.6380    7.6350   32.7580 C.3   632  ILE632      0.1692
     91  C         45.0910    7.4960   32.3100 C.2   632  ILE632      0.2592
     92  O         45.9950    7.9190   33.0300 O.2   632  ILE632     -0.2718
     93  CB        43.2710    9.1180   32.6670 C.3   632  ILE632      0.0266
     94  CG1       41.8420    9.3480   33.1630 C.3   632  ILE632      0.0019
     95  CG2       43.4220    9.6080   31.2460 C.3   632  ILE632      0.0020
     96  CD1       41.4780   10.7890   33.3170 C.3   632  ILE632      0.0001
     97  N         45.3210    6.9090   31.1360 N.am  633  GLU633     -0.1966
     98  CA        46.6850    6.8070   30.5780 C.3   633  GLU633      0.1733
     99  C         47.2690    8.1850   30.3140 C.2   633  GLU633      0.2616
    100  O         46.5560    9.0970   29.8920 O.2   633  GLU633     -0.2715
    101  CB        46.6990    6.0160   29.2590 C.3   633  GLU633      0.0429
    102  CG        48.0940    5.9270   28.5710 C.3   633  GLU633      0.1163
    103  CD        48.1010    5.1530   27.2310 C.2   633  GLU633      0.3649
    104  OE1       47.0280    4.8420   26.6590 O.co2 633  GLU633     -0.2457
    105  OE2       49.2130    4.8720   26.7330 O.co2 633  GLU633     -0.2457
    106  N         48.5640    8.3360   30.5560 N.am  634  ILE634     -0.1963
    107  CA        49.2610    9.5620   30.1800 C.3   634  ILE634      0.1727
    108  C         49.9670    9.3880   28.8430 C.2   634  ILE634      0.2616
    109  O         50.9110    8.6110   28.7250 O.2   634  ILE634     -0.2715
    110  CB        50.2830    9.9750   31.2310 C.3   634  ILE634      0.0290
    111  CG1       49.5640   10.2650   32.5600 C.3   634  ILE634      0.0022
    112  CG2       51.0570   11.1890   30.7440 C.3   634  ILE634      0.0023
    113  CD1       50.4860   10.5810   33.7190 C.3   634  ILE634      0.0001
    114  N         49.4820   10.1020   27.8360 N.am  635  VAL635     -0.1977
    115  CA        50.1850   10.2190   26.5680 C.3   635  VAL635      0.1596
    116  C         51.3600   11.1630   26.7670 C.2   635  VAL635      0.2287
    117  O         51.1660   12.3610   26.9980 O.2   635  VAL635     -0.2864
    118  CB        49.2750   10.7860   25.4640 C.3   635  VAL635      0.0276
    119  CG1       50.0960   11.1140   24.2140 C.3   635  VAL635      0.0022
    120  CG2       48.1350    9.8050   25.1510 C.3   635  VAL635      0.0022
    121  N         53.0650   15.9170   25.9270 N.3   638  ALA638     -0.1231
    122  CA        51.8020   16.5270   25.4950 C.3   638  ALA638      0.1694
    123  C         51.3410   17.5860   26.4640 C.2   638  ALA638      0.2593
    124  O         51.6130   17.5110   27.6550 O.2   638  ALA638     -0.2718
    125  CB        50.7170   15.4720   25.3220 C.3   638  ALA638      0.0304
    126  N         50.6710   18.5920   25.9280 N.am  639  THR639     -0.1939
    127  CA        50.0720   19.6380   26.7280 C.3   639  THR639      0.2028
    128  C         48.7960   20.0690   26.0330 C.2   639  THR639      0.2642
    129  O         48.4490   19.5400   24.9730 O.2   639  THR639     -0.2714
    130  CB        51.0240   20.8270   26.9250 C.3   639  THR639      0.1808
    131  OG1       50.3170   21.9110   27.5540 O.3   639  THR639     -0.2208
    132  CG2       51.6060   21.2820   25.5940 C.3   639  THR639      0.0379
    133  N         48.0790   21.0040   26.6360 N.am  640  THR640     -0.1950
    134  CA        46.8120   21.4430   26.0650 C.3   640  THR640      0.1897
    135  C         47.0490   22.5990   25.0980 C.2   640  THR640      0.2313
    136  O         48.1160   23.2170   25.1020 O.2   640  THR640     -0.2863
    137  CB        45.7960   21.8300   27.1660 C.3   640  THR640      0.1794
    138  OG1       46.3250   22.8800   27.9800 O.3   640  THR640     -0.2208
    139  CG2       45.4940   20.6230   28.0400 C.3   640  THR640      0.0378
    140  N         47.2220   25.9570   27.2490 N.3   643  LYS643     -0.1245
    141  CA        48.4650   26.2570   27.9640 C.3   643  LYS643      0.1561
    142  C         49.5350   26.7880   27.0010 C.2   643  LYS643      0.2260
    143  O         50.3130   27.6720   27.3630 O.2   643  LYS643     -0.2867
    144  CB        48.9750   25.0190   28.7220 C.3   643  LYS643      0.0271
    145  CG        49.7890   25.3470   29.9680 C.3   643  LYS643      0.0035
    146  CD        50.0120   24.1160   30.8570 C.3   643  LYS643      0.0206
    147  CE        50.1960   24.5000   32.3360 C.3   643  LYS643      0.1093
    148  NZ        50.5860   23.3360   33.1910 N.3   643  LYS643     -0.1314
    149  N         41.1210   24.0550   26.5420 N.3   703  ASP703     -0.1225
    150  CA        41.6410   23.4140   27.7520 C.3   703  ASP703      0.1805
    151  C         41.5520   21.8900   27.6160 C.2   703  ASP703      0.2597
    152  O         42.4410   21.1700   28.0600 O.2   703  ASP703     -0.2718
    153  CB        40.8610   23.8870   28.9900 C.3   703  ASP703      0.1424
    154  CG        41.4820   23.4080   30.2960 C.2   703  ASP703      0.3668
    155  OD1       42.5710   23.9080   30.6510 O.co2 703  ASP703     -0.2456
    156  OD2       40.8830   22.5350   30.9690 O.co2 703  ASP703     -0.2456
    157  N         40.4840   21.4110   26.9820 N.am  704  ASN704     -0.1974
    158  CA        40.2550   19.9750   26.8050 C.3   704  ASN704      0.1688
    159  C         40.6490   19.4410   25.4190 C.2   704  ASN704      0.2292
    160  O         40.1290   18.4220   24.9700 O.2   704  ASN704     -0.2864
    161  CB        38.7840   19.6430   27.1160 C.3   704  ASN704      0.1181
    162  CG        38.4530   19.7720   28.6020 C.2   704  ASN704      0.2629
    163  OD1       39.2880   19.5050   29.4580 O.2   704  ASN704     -0.2716
    164  ND2       37.2240   20.1710   28.9060 N.am  704  ASN704     -0.0877
    165  N         44.2680   18.4790   23.2300 N.3   706  MET706     -0.1245
    166  CA        45.6980   18.3040   23.4750 C.3   706  MET706      0.1570
    167  C         46.5000   18.0680   22.2040 C.2   706  MET706      0.2261
    168  O         45.9480   17.7600   21.1520 O.2   706  MET706     -0.2867
    169  CB        45.9420   17.1580   24.4670 C.3   706  MET706      0.0387
    170  CG        45.3660   17.4000   25.8590 C.3   706  MET706      0.0595
    171  SD        46.5010   16.9030   27.1800 S.3   706  MET706     -0.1393
    172  CE        45.3520   15.9720   28.1640 C.3   706  MET706      0.0692
    173  N         44.7160   15.5090   20.0260 N.3   714  PHE714     -0.1241
    174  CA        43.7180   14.6130   20.6310 C.3   714  PHE714      0.1605
    175  C         42.9290   15.2590   21.7590 C.2   714  PHE714      0.2264
    176  O         43.4950   15.9260   22.6210 O.2   714  PHE714     -0.2867
    177  CB        44.3740   13.3330   21.1450 C.3   714  PHE714      0.0534
    178  CG        45.3310   13.5490   22.2910 C.ar  714  PHE714     -0.0203
    179  CD1       46.5230   14.2420   22.1080 C.ar  714  PHE714     -0.0042
    180  CD2       45.0520   13.0380   23.5430 C.ar  714  PHE714     -0.0042
    181  CE1       47.4080   14.4270   23.1580 C.ar  714  PHE714     -0.0003
    182  CE2       45.9270   13.2230   24.5900 C.ar  714  PHE714     -0.0003
    183  CZ        47.1080   13.9210   24.4000 C.ar  714  PHE714     -0.0000
    184  N         40.2590   15.3160   25.1590 N.3   716  ILE716     -0.1231
    185  CA        40.1960   14.6150   26.4670 C.3   716  ILE716      0.1692
    186  C         38.9050   14.8980   27.2360 C.2   716  ILE716      0.2592
    187  O         38.1590   15.8080   26.8920 O.2   716  ILE716     -0.2718
    188  CB        41.3650   14.9850   27.4040 C.3   716  ILE716      0.0266
    189  CG1       41.5370   16.5020   27.4860 C.3   716  ILE716      0.0019
    190  CG2       42.6420   14.3440   26.9590 C.3   716  ILE716      0.0020
    191  CD1       42.3000   16.9490   28.7260 C.3   716  ILE716      0.0001
    192  N         38.6700   14.1110   28.2840 N.am  717  ASP717     -0.1974
    193  CA        37.6020   14.3570   29.2560 C.3   717  ASP717      0.1709
    194  C         36.2320   14.4180   28.6100 C.2   717  ASP717      0.2293
    195  O         35.7200   15.4830   28.2900 O.2   717  ASP717     -0.2864
    196  CB        37.8710   15.6480   30.0310 C.3   717  ASP717      0.1436
    197  CG        37.0480   15.7520   31.3160 C.2   717  ASP717      0.3671
    198  OD1       36.0310   15.0370   31.4670 O.co2 717  ASP717     -0.2456
    199  OD2       37.4370   16.5490   32.1930 O.co2 717  ASP717     -0.2456
@<TRIPOS>BOND
     1   173   174    1
     2   174   177    1
     3   174   175    1
     4   177   178    1
     5   168   167    2
     6   175   176    2
     7   179   178   ar
     8   179   181   ar
     9   167   166    1
    10   178   180   ar
    11   181   183   ar
    12   165   166    1
    13   166   169    1
    14   180   182   ar
    15    77    78    1
    16   119   118    1
    17   183   182   ar
    18   169   170    1
    19   160   159    2
    20   129   128    2
    21   135   136    2
    22   135   134    1
    23   120   118    1
    24   184   185    1
    25    78    81    1
    26    78    79    1
    27   125   122    1
    28   159   158    1
    29   118   115    1
    30   122   121    1
    31   122   123    1
    32   132   130    1
    33    84    86   ar
    34    84    82   ar
    35   170   171    1
    36   126   123   am
    37   126   127    1
    38   128   133   am
    39   128   127    1
    40   134   133    1
    41   134   137    1
    42    80    79    2
    43    86    87   ar
    44    81    82    1
    45   123   124    2
    46   185   186    1
    47   185   188    1
    48    82    83   ar
    49   149   150    1
    50   115   116    1
    51   115   114    1
    52   104   103   ar
    53   127   130    1
    54   105   103   ar
    55   116   117    2
    56   158   157    1
    57   158   161    1
    58   187   186    2
    59   130   131    1
    60   190   188    1
    61   157   151   am
    62   142   143    2
    63   142   141    1
    64    72    71    2
    65    87    88    1
    66    87    85   ar
    67   161   162    1
    68   137   138    1
    69   137   139    1
    70   171   172    1
    71   103   102    1
    72   186   192   am
    73   140   141    1
    74   188   189    1
    75   189   191    1
    76    83    85   ar
    77   151   150    1
    78   151   152    2
    79   150   153    1
    80   114   108   am
    81   141   144    1
    82    71    70    1
    83   192   193    1
    84   195   194    2
    85   102   101    1
    86   162   164   am
    87   162   163    2
    88   194   193    1
    89   144   145    1
    90   109   108    2
    91    70    69    1
    92    70    73    1
    93   108   107    1
    94   153   154    1
    95   193   196    1
    96   101    98    1
    97    73    74    1
    98    75    74   ar
    99   100    99    2
   100   145   146    1
   101   196   197    1
   102    74    76   ar
   103   107   106    1
   104   107   110    1
   105   154   155   ar
   106   154   156   ar
   107    99   106   am
   108    99    98    1
   109    98    97    1
   110   112   110    1
   111   146   147    1
   112    97    91   am
   113   110   111    1
   114    95    93    1
   115   197   198   ar
   116   197   199   ar
   117    64    63    2
   118    91    90    1
   119    91    92    2
   120   147   148    1
   121   111   113    1
   122    35    34   ar
   123    35    33   ar
   124    93    90    1
   125    93    94    1
   126    90    89    1
   127    63    62    1
   128    94    96    1
   129    34    32   ar
   130    33    31   ar
   131    62    65    1
   132    62    61    1
   133    68    66    1
   134    43    41    1
   135    65    66    1
   136    32    29   ar
   137    66    67    1
   138    31    29   ar
   139    31    30   ar
   140    41    40    1
   141    60    58   ar
   142    40    42    1
   143    40    37    1
   144    29    27   ar
   145     8     7    1
   146    58    59   ar
   147    58    57    1
   148    36    37    1
   149    57    54    1
   150    30    28   ar
   151    52    51    1
   152    37    38    1
   153    39    38    2
   154    55    54    1
   155    55    56    2
   156     7     6    1
   157    54    53    1
   158    27    28   ar
   159    27    26    1
   160    50    51    1
   161    50    49    1
   162     6     5    1
   163    26    23    1
   164    48    49    1
   165    48    45    1
   166    13    14    1
   167    13    10    1
   168     5     2    1
   169    20    19    1
   170    20    21    1
   171    23    24    1
   172    23    22    1
   173    10     9    1
   174    10    11    1
   175    19    16    1
   176    24    25    2
   177    44    45    1
   178    45    46    1
   179    21    15    1
   180     2     3    1
   181     2     1    1
   182    47    46    2
   183     3     4    2
   184    11    12    2
   185    16    15    1
   186    16    17    1
   187    17    18    2
