@<TRIPOS>MOLECULE
tmp/3apfA00.pdb
 206 192 0 0 0
SMALL
GASTEIGER

@<TRIPOS>ATOM
      1  N         47.3200   16.6620   40.7540 N.3   559  MET559     -0.1245
      2  CA        47.0890   17.5460   39.6360 C.3   559  MET559      0.1570
      3  C         46.2150   18.6830   40.0760 C.2   559  MET559      0.2261
      4  O         45.2880   18.4970   40.8510 O.2   559  MET559     -0.2867
      5  CB        46.4330   16.7940   38.4700 C.3   559  MET559      0.0387
      6  CG        47.4340   16.0880   37.5620 C.3   559  MET559      0.0595
      7  SD        46.7550   14.6690   36.6740 S.3   559  MET559     -0.1393
      8  CE        45.4630   15.4910   35.7290 C.3   559  MET559      0.0692
      9  N         43.6610   19.8850   39.1720 N.3   561  SER561     -0.1217
     10  CA        42.4240   19.6660   38.4020 C.3   561  SER561      0.1889
     11  C         41.1840   19.9200   39.2610 C.2   561  SER561      0.2288
     12  O         41.2900   20.3330   40.4280 O.2   561  SER561     -0.2866
     13  CB        42.4100   18.2500   37.8080 C.3   561  SER561      0.2089
     14  OG        42.9980   18.2100   36.5140 O.3   561  SER561     -0.2183
     15  N         48.6660   12.3260   39.2230 N.3   567  TRP567     -0.1241
     16  CA        49.5900   12.0520   38.1360 C.3   567  TRP567      0.1605
     17  C         50.6450   11.1500   38.6920 C.2   567  TRP567      0.2264
     18  O         51.4420   11.6020   39.4930 O.2   567  TRP567     -0.2867
     19  CB        50.2200   13.3510   37.6720 C.3   567  TRP567      0.0550
     20  CG        51.2340   13.2180   36.6270 C.ar  567  TRP567      0.0003
     21  CD1       52.5120   12.7270   36.7530 C.ar  567  TRP567      0.0946
     22  CD2       51.0860   13.6030   35.2680 C.ar  567  TRP567      0.0152
     23  NE1       53.1570   12.7810   35.5450 N.ar  567  TRP567     -0.2442
     24  CE2       52.3040   13.3210   34.6170 C.ar  567  TRP567      0.0810
     25  CE3       50.0360   14.1660   34.5290 C.ar  567  TRP567      0.0012
     26  CZ2       52.5020   13.5900   33.2660 C.ar  567  TRP567      0.0191
     27  CZ3       50.2340   14.4260   33.1840 C.ar  567  TRP567      0.0001
     28  CH2       51.4590   14.1360   32.5670 C.ar  567  TRP567      0.0015
     29  N         47.1960    8.2890   35.4050 N.3   586  ILE586     -0.1245
     30  CA        46.4530    9.2460   36.1960 C.3   586  ILE586      0.1561
     31  C         45.4610    8.3970   36.9350 C.2   586  ILE586      0.2260
     32  O         44.8640    7.5250   36.3260 O.2   586  ILE586     -0.2867
     33  CB        45.6590   10.2090   35.2940 C.3   586  ILE586      0.0252
     34  CG1       46.5980   11.2010   34.5810 C.3   586  ILE586      0.0019
     35  CG2       44.5640   10.9190   36.0790 C.3   586  ILE586      0.0019
     36  CD1       45.8710   12.1600   33.6350 C.3   586  ILE586      0.0001
     37  N         41.8850    8.7350   39.3880 N.3   588  LYS588     -0.1245
     38  CA        40.8610    9.7790   39.6150 C.3   588  LYS588      0.1561
     39  C         39.5750    9.2970   40.2760 C.2   588  LYS588      0.2260
     40  O         38.9360    8.3950   39.7650 O.2   588  LYS588     -0.2867
     41  CB        40.5130   10.5030   38.3040 C.3   588  LYS588      0.0271
     42  CG        39.6450   11.7310   38.5150 C.3   588  LYS588      0.0035
     43  CD        39.5580   12.6310   37.2880 C.3   588  LYS588      0.0206
     44  CE        39.0820   14.0360   37.6740 C.3   588  LYS588      0.1093
     45  NZ        39.0790   15.0440   36.5530 N.3   588  LYS588     -0.1314
     46  N         34.5720   11.4800   38.7490 N.3   591  ASP591     -0.1239
     47  CA        33.7950   11.2730   37.5120 C.3   591  ASP591      0.1674
     48  C         33.3940    9.8000   37.3420 C.2   591  ASP591      0.2266
     49  O         33.9200    8.8990   38.0310 O.2   591  ASP591     -0.2867
     50  CB        34.6110   11.6690   36.2710 C.3   591  ASP591      0.1410
     51  CG        35.2050   13.0730   36.3580 C.2   591  ASP591      0.3668
     52  OD1       34.4380   14.0460   36.5590 O.co2 591  ASP591     -0.2456
     53  OD2       36.4460   13.1970   36.1910 O.co2 591  ASP591     -0.2456
     54  N         34.0440    7.1760   34.8280 N.3   593  LEU593     -0.1245
     55  CA        34.9440    6.7540   33.7590 C.3   593  LEU593      0.1561
     56  C         34.3420    5.7310   32.7990 C.2   593  LEU593      0.2260
     57  O         34.8370    5.5590   31.6960 O.2   593  LEU593     -0.2867
     58  CB        36.2120    6.1690   34.3680 C.3   593  LEU593      0.0270
     59  CG        37.0650    7.1730   35.1360 C.3   593  LEU593      0.0019
     60  CD1       38.2930    6.5010   35.6840 C.3   593  LEU593      0.0001
     61  CD2       37.4350    8.3650   34.2740 C.3   593  LEU593      0.0001
     62  N         33.7620    7.4930   29.7010 N.3   596  ASP596     -0.1239
     63  CA        34.9880    7.6570   28.9590 C.3   596  ASP596      0.1674
     64  C         35.3870    6.3710   28.2420 C.2   596  ASP596      0.2266
     65  O         35.7290    6.4310   27.0820 O.2   596  ASP596     -0.2867
     66  CB        36.1100    8.1350   29.8770 C.3   596  ASP596      0.1410
     67  CG        35.9720    9.5940   30.2420 C.2   596  ASP596      0.3668
     68  OD1       36.8600   10.3920   29.8540 O.co2 596  ASP596     -0.2456
     69  OD2       34.9660    9.9420   30.8940 O.co2 596  ASP596     -0.2456
     70  N         35.8270    6.2740   24.2450 N.3   600  LEU600     -0.1245
     71  CA        37.1200    5.8430   23.7490 C.3   600  LEU600      0.1561
     72  C         36.9680    4.5990   22.8720 C.2   600  LEU600      0.2260
     73  O         37.6470    4.4940   21.8640 O.2   600  LEU600     -0.2867
     74  CB        38.1190    5.5990   24.8960 C.3   600  LEU600      0.0270
     75  CG        38.4880    6.9190   25.5910 C.3   600  LEU600      0.0019
     76  CD1       39.3300    6.7470   26.8870 C.3   600  LEU600      0.0001
     77  CD2       39.2030    7.8390   24.5970 C.3   600  LEU600      0.0001
     78  N         43.3670    6.8120   24.2180 N.3   622  TYR622     -0.1241
     79  CA        44.2870    6.3110   25.2390 C.3   622  TYR622      0.1605
     80  C         43.6070    5.3520   26.2140 C.2   622  TYR622      0.2264
     81  O         42.3900    5.2930   26.3190 O.2   622  TYR622     -0.2867
     82  CB        44.8790    7.5150   26.0190 C.3   622  TYR622      0.0534
     83  CG        43.7930    8.4580   26.4490 C.ar  622  TYR622     -0.0201
     84  CD1       43.0600    8.2220   27.5890 C.ar  622  TYR622     -0.0009
     85  CD2       43.4470    9.5340   25.6770 C.ar  622  TYR622     -0.0009
     86  CE1       42.0460    9.0540   27.9670 C.ar  622  TYR622      0.0417
     87  CE2       42.4020   10.3750   26.0460 C.ar  622  TYR622      0.0417
     88  CZ        41.7090   10.1280   27.1860 C.ar  622  TYR622      0.1957
     89  OH        40.6650   10.9410   27.5520 O.3   622  TYR622     -0.2866
     90  N         42.0230    3.6980   29.5300 N.3   624  CYS624     -0.1235
     91  CA        41.1220    4.2290   30.5210 C.3   624  CYS624      0.1677
     92  C         40.2710    3.1040   31.0390 C.2   624  CYS624      0.2270
     93  O         39.4000    2.6520   30.3410 O.2   624  CYS624     -0.2867
     94  CB        40.2160    5.2790   29.9090 C.3   624  CYS624      0.0956
     95  SG        38.8980    5.7930   31.0310 S.3   624  CYS624     -0.0801
     96  N         43.6210    6.3150   33.9400 N.3   634  ILE634     -0.1231
     97  CA        43.8590    6.7740   32.5710 C.3   634  ILE634      0.1692
     98  C         45.3260    6.6990   32.1610 C.2   634  ILE634      0.2592
     99  O         46.2280    6.9180   32.9660 O.2   634  ILE634     -0.2718
    100  CB        43.4690    8.2200   32.4070 C.3   634  ILE634      0.0266
    101  CG1       42.0340    8.4340   32.8830 C.3   634  ILE634      0.0019
    102  CG2       43.6510    8.6450   30.9410 C.3   634  ILE634      0.0020
    103  CD1       41.9300    8.7370   34.3580 C.3   634  ILE634      0.0001
    104  N         45.5650    6.4180   30.8910 N.am  635  GLU635     -0.1966
    105  CA        46.9180    6.3940   30.3610 C.3   635  GLU635      0.1733
    106  C         47.3500    7.8140   30.0490 C.2   635  GLU635      0.2616
    107  O         46.5890    8.5780   29.4220 O.2   635  GLU635     -0.2715
    108  CB        46.9550    5.5890   29.0700 C.3   635  GLU635      0.0429
    109  CG        48.3070    5.5230   28.3640 C.3   635  GLU635      0.1163
    110  CD        48.1990    5.0550   26.8970 C.2   635  GLU635      0.3649
    111  OE1       47.0890    4.9910   26.3250 O.co2 635  GLU635     -0.2457
    112  OE2       49.2480    4.7500   26.3020 O.co2 635  GLU635     -0.2457
    113  N         48.5750    8.1430   30.4700 N.am  636  ILE636     -0.1963
    114  CA        49.2360    9.4060   30.1170 C.3   636  ILE636      0.1727
    115  C         49.9820    9.2920   28.7980 C.2   636  ILE636      0.2616
    116  O         50.9700    8.5570   28.6960 O.2   636  ILE636     -0.2715
    117  CB        50.2690    9.7980   31.1990 C.3   636  ILE636      0.0290
    118  CG1       49.5380   10.3580   32.4360 C.3   636  ILE636      0.0022
    119  CG2       51.3030   10.7590   30.6350 C.3   636  ILE636      0.0023
    120  CD1       50.2390   10.0670   33.7800 C.3   636  ILE636      0.0001
    121  N         49.5250   10.0000   27.7800 N.am  637  VAL637     -0.1977
    122  CA        50.3470   10.1170   26.5890 C.3   637  VAL637      0.1596
    123  C         51.5000   11.0400   26.9340 C.2   637  VAL637      0.2287
    124  O         51.2820   12.1730   27.3480 O.2   637  VAL637     -0.2864
    125  CB        49.6250   10.6770   25.3580 C.3   637  VAL637      0.0276
    126  CG1       50.6080   10.7330   24.1790 C.3   637  VAL637      0.0022
    127  CG2       48.4140    9.8280   25.0100 C.3   637  VAL637      0.0022
    128  N         52.6530   15.4580   26.0730 N.3   640  ALA640     -0.1231
    129  CA        51.4420   16.1950   25.6530 C.3   640  ALA640      0.1694
    130  C         51.0390   17.3140   26.6060 C.2   640  ALA640      0.2593
    131  O         51.3360   17.2650   27.7880 O.2   640  ALA640     -0.2718
    132  CB        50.2830   15.2350   25.4360 C.3   640  ALA640      0.0304
    133  N         50.3530   18.3200   26.0790 N.am  641  THR641     -0.1939
    134  CA        49.8660   19.4380   26.8920 C.3   641  THR641      0.2028
    135  C         48.5980   20.0600   26.2950 C.2   641  THR641      0.2642
    136  O         48.4410   20.1150   25.0800 O.2   641  THR641     -0.2714
    137  CB        50.9410   20.5230   27.0450 C.3   641  THR641      0.1808
    138  OG1       50.4710   21.5440   27.9330 O.3   641  THR641     -0.2208
    139  CG2       51.2580   21.1190   25.7170 C.3   641  THR641      0.0379
    140  N         47.7030   20.5370   27.1540 N.am  642  THR642     -0.1950
    141  CA        46.3980   20.9870   26.6950 C.3   642  THR642      0.1897
    142  C         46.5300   22.3200   25.9980 C.2   642  THR642      0.2313
    143  O         47.4300   23.0910   26.3080 O.2   642  THR642     -0.2863
    144  CB        45.3600   21.1170   27.8460 C.3   642  THR642      0.1794
    145  OG1       45.3730   22.4440   28.3930 O.3   642  THR642     -0.2208
    146  CG2       45.6230   20.0760   28.9460 C.3   642  THR642      0.0378
    147  N         46.6530   25.5250   28.2290 N.3   645  LYS645     -0.1245
    148  CA        47.9430   25.8110   28.8570 C.3   645  LYS645      0.1561
    149  C         49.0020   26.2710   27.8490 C.2   645  LYS645      0.2260
    150  O         49.9700   26.9280   28.2260 O.2   645  LYS645     -0.2867
    151  CB        48.4480   24.6040   29.6490 C.3   645  LYS645      0.0271
    152  CG        49.5010   24.9550   30.7090 C.3   645  LYS645      0.0035
    153  CD        50.2340   23.7170   31.2370 C.3   645  LYS645      0.0206
    154  CE        51.5030   24.0840   32.0270 C.3   645  LYS645      0.1093
    155  NZ        52.2040   22.8680   32.5760 N.3   645  LYS645     -0.1314
    156  N         40.8480   23.3320   27.4830 N.3   705  ASP705     -0.1225
    157  CA        41.5600   22.6300   28.5430 C.3   705  ASP705      0.1805
    158  C         41.2320   21.1160   28.5130 C.2   705  ASP705      0.2597
    159  O         41.8940   20.3000   29.1750 O.2   705  ASP705     -0.2718
    160  CB        41.2020   23.2140   29.9080 C.3   705  ASP705      0.1424
    161  CG        42.1430   22.7530   30.9890 C.2   705  ASP705      0.3668
    162  OD1       43.3720   22.9820   30.8440 O.co2 705  ASP705     -0.2456
    163  OD2       41.6550   22.1450   31.9660 O.co2 705  ASP705     -0.2456
    164  N         40.1910   20.7620   27.7630 N.am  706  ASN706     -0.1974
    165  CA        39.8520   19.3880   27.4940 C.3   706  ASN706      0.1688
    166  C         40.3060   18.9450   26.0850 C.2   706  ASN706      0.2292
    167  O         39.7020   18.0450   25.4880 O.2   706  ASN706     -0.2864
    168  CB        38.3430   19.2390   27.6570 C.3   706  ASN706      0.1181
    169  CG        37.8720   19.6190   29.0470 C.2   706  ASN706      0.2629
    170  OD1       38.5380   19.3120   30.0400 O.2   706  ASN706     -0.2716
    171  ND2       36.7080   20.2720   29.1330 N.am  706  ASN706     -0.0877
    172  N         44.0580   18.2150   23.7850 N.3   708  MET708     -0.1245
    173  CA        45.4800   18.1240   23.9610 C.3   708  MET708      0.1570
    174  C         46.2260   17.9850   22.6360 C.2   708  MET708      0.2261
    175  O         45.6050   17.8100   21.5730 O.2   708  MET708     -0.2867
    176  CB        45.7890   16.9570   24.8880 C.3   708  MET708      0.0387
    177  CG        45.4480   17.2200   26.3630 C.3   708  MET708      0.0595
    178  SD        46.5700   16.3140   27.4580 S.3   708  MET708     -0.1393
    179  CE        46.0000   16.8850   29.0370 C.3   708  MET708      0.0692
    180  N         44.5420   15.4760   20.3720 N.3   716  PHE716     -0.1241
    181  CA        43.4690   14.5840   20.8410 C.3   716  PHE716      0.1605
    182  C         42.6950   15.1780   21.9860 C.2   716  PHE716      0.2264
    183  O         43.2550   15.9370   22.7660 O.2   716  PHE716     -0.2867
    184  CB        44.0530   13.2750   21.3200 C.3   716  PHE716      0.0534
    185  CG        44.9970   13.4320   22.4540 C.ar  716  PHE716     -0.0203
    186  CD1       46.2810   13.8910   22.2430 C.ar  716  PHE716     -0.0042
    187  CD2       44.6110   13.1310   23.7370 C.ar  716  PHE716     -0.0042
    188  CE1       47.1650   14.0490   23.3150 C.ar  716  PHE716     -0.0003
    189  CE2       45.4920   13.2800   24.8060 C.ar  716  PHE716     -0.0003
    190  CZ        46.7600   13.7330   24.5960 C.ar  716  PHE716     -0.0000
    191  N         40.2890   14.9090   25.5670 N.3   718  ILE718     -0.1231
    192  CA        40.2290   14.1020   26.7680 C.3   718  ILE718      0.1692
    193  C         38.9680   14.3770   27.5680 C.2   718  ILE718      0.2592
    194  O         38.1380   15.1760   27.1810 O.2   718  ILE718     -0.2718
    195  CB        41.4820   14.2690   27.6590 C.3   718  ILE718      0.0266
    196  CG1       41.7640   15.7580   27.9700 C.3   718  ILE718      0.0019
    197  CG2       42.6560   13.6170   26.9980 C.3   718  ILE718      0.0020
    198  CD1       42.7360   15.9760   29.1870 C.3   718  ILE718      0.0001
    199  N         38.8430   13.6420   28.6610 N.am  719  ASP719     -0.1974
    200  CA        37.7620   13.7530   29.6150 C.3   719  ASP719      0.1709
    201  C         36.3820   13.9390   29.0000 C.2   719  ASP719      0.2293
    202  O         35.9570   15.0510   28.7340 O.2   719  ASP719     -0.2864
    203  CB        38.0510   14.8560   30.6070 C.3   719  ASP719      0.1436
    204  CG        37.0080   14.9350   31.6750 C.2   719  ASP719      0.3671
    205  OD1       35.9660   14.2570   31.4880 O.co2 719  ASP719     -0.2456
    206  OD2       37.2180   15.6660   32.6840 O.co2 719  ASP719     -0.2456
@<TRIPOS>BOND
     1   180   181    1
     2   181   184    1
     3   181   182    1
     4   184   185    1
     5   175   174    2
     6    73    72    2
     7   182   183    2
     8   186   185   ar
     9   186   188   ar
    10   185   187   ar
    11   174   173    1
    12    72    71    1
    13   188   190   ar
    14   187   189   ar
    15    71    70    1
    16    71    74    1
    17   172   173    1
    18   173   176    1
    19   126   125    1
    20    78    79    1
    21   190   189   ar
    22    77    75    1
    23   176   177    1
    24    74    75    1
    25   127   125    1
    26   136   135    2
    27    79    82    1
    28    79    80    1
    29   125   122    1
    30   132   129    1
    31   167   166    2
    32   191   192    1
    33    75    76    1
    34   129   128    1
    35   129   130    1
    36    85    87   ar
    37    85    83   ar
    38   139   137    1
    39   142   143    2
    40   142   141    1
    41    82    83    1
    42    87    88   ar
    43   133   130   am
    44   133   134    1
    45   166   165    1
    46    80    81    2
    47   135   134    1
    48   135   140   am
    49   112   110   ar
    50   111   110   ar
    51   177   178    1
    52    83    84   ar
    53   122   123    1
    54   122   121    1
    55   130   131    2
    56   141   140    1
    57   141   144    1
    58   192   193    1
    59   192   195    1
    60   134   137    1
    61   110   109    1
    62   123   124    2
    63   197   195    1
    64   137   138    1
    65    65    64    2
    66   194   193    2
    67    88    89    1
    68    88    86   ar
    69   178   179    1
    70   156   157    1
    71   165   168    1
    72   165   164    1
    73   193   199   am
    74    84    86   ar
    75   168   169    1
    76   195   196    1
    77   164   158   am
    78   121   115   am
    79   144   145    1
    80   144   146    1
    81   149   150    2
    82   149   148    1
    83   196   198    1
    84   147   148    1
    85    64    63    1
    86   109   108    1
    87   158   157    1
    88   158   159    2
    89   157   160    1
    90   199   200    1
    91   116   115    2
    92   202   201    2
    93   115   114    1
    94   148   151    1
    95    63    62    1
    96    63    66    1
    97   201   200    1
    98   169   171   am
    99   169   170    2
   100   108   105    1
   101   107   106    2
   102    90    91    1
   103   200   203    1
   104   151   152    1
   105    68    67   ar
   106    66    67    1
   107   160   161    1
   108    94    91    1
   109    94    95    1
   110   106   105    1
   111   106   113   am
   112   114   113    1
   113   114   117    1
   114    67    69   ar
   115    93    92    2
   116   105   104    1
   117    91    92    1
   118   203   204    1
   119   119   117    1
   120   152   153    1
   121   162   161   ar
   122   104    98   am
   123   102   100    1
   124   161   163   ar
   125   117   118    1
   126   153   154    1
   127   205   204   ar
   128   204   206   ar
   129    57    56    2
   130   154   155    1
   131    98    97    1
   132    98    99    2
   133   100    97    1
   134   100   101    1
   135   118   120    1
   136    28    27   ar
   137    28    26   ar
   138    97    96    1
   139    56    55    1
   140   101   103    1
   141    27    25   ar
   142    26    24   ar
   143    36    34    1
   144    55    58    1
   145    55    54    1
   146    61    59    1
   147    58    59    1
   148    25    22   ar
   149    34    33    1
   150    24    22   ar
   151    24    23   ar
   152    59    60    1
   153    22    20   ar
   154    33    35    1
   155    33    30    1
   156    29    30    1
   157    23    21   ar
   158     8     7    1
   159    53    51   ar
   160    30    31    1
   161    50    51    1
   162    50    47    1
   163    32    31    2
   164    51    52   ar
   165    14    13    1
   166    45    44    1
   167    20    21   ar
   168    20    19    1
   169     7     6    1
   170    43    44    1
   171    43    42    1
   172    48    47    1
   173    48    49    2
   174    47    46    1
   175     6     5    1
   176    19    16    1
   177    13    10    1
   178    16    17    1
   179    16    15    1
   180    41    42    1
   181    41    38    1
   182    10     9    1
   183    10    11    1
   184     5     2    1
   185    17    18    2
   186    11    12    2
   187    37    38    1
   188    38    39    1
   189     2     3    1
   190     2     1    1
   191    40    39    2
   192     3     4    2
