@<TRIPOS>MOLECULE
tmp/3apuA00.pdb
 181 170 0 0 0
SMALL
GASTEIGER

@<TRIPOS>ATOM
      1  N          9.1180   -6.0080   14.4740 N.3    27  TYR27      -0.1241
      2  CA        10.5100   -5.6810   14.2260 C.3    27  TYR27       0.1605
      3  C         11.1090   -6.8230   13.4270 C.2    27  TYR27       0.2264
      4  O         11.0260   -7.9830   13.8330 O.2    27  TYR27      -0.2867
      5  CB        11.2460   -5.4180   15.5570 C.3    27  TYR27       0.0534
      6  CG        12.7700   -5.4540   15.4980 C.ar   27  TYR27      -0.0201
      7  CD1       13.4910   -6.3650   16.2870 C.ar   27  TYR27      -0.0009
      8  CD2       13.4800   -4.6220   14.6340 C.ar   27  TYR27      -0.0009
      9  CE1       14.8780   -6.4280   16.2350 C.ar   27  TYR27       0.0417
     10  CE2       14.8870   -4.6790   14.5750 C.ar   27  TYR27       0.0417
     11  CZ        15.5690   -5.5620   15.3790 C.ar   27  TYR27       0.1957
     12  OH        16.9460   -5.6200   15.3130 O.3    27  TYR27      -0.2866
     13  N         23.6960   -1.6430   12.3560 N.3    32  PHE32      -0.1241
     14  CA        24.1870   -0.2710   12.6560 C.3    32  PHE32       0.1605
     15  C         25.6800   -0.3070   12.6370 C.2    32  PHE32       0.2264
     16  O         26.2760   -1.3700   12.7960 O.2    32  PHE32      -0.2867
     17  CB        23.7670    0.2500   14.0390 C.3    32  PHE32       0.0534
     18  CG        22.3170    0.1240   14.3080 C.ar   32  PHE32      -0.0203
     19  CD1       21.7720   -1.0910   14.7530 C.ar   32  PHE32      -0.0042
     20  CD2       21.4750    1.2160   14.1080 C.ar   32  PHE32      -0.0042
     21  CE1       20.3840   -1.1850   14.9810 C.ar   32  PHE32      -0.0003
     22  CE2       20.0980    1.0950   14.3240 C.ar   32  PHE32      -0.0003
     23  CZ        19.5840   -0.0810   14.7620 C.ar   32  PHE32      -0.0000
     24  N         24.3570    0.1530   19.9900 N.3    37  TYR37      -0.1241
     25  CA        23.0970   -0.2700   19.3540 C.3    37  TYR37       0.1605
     26  C         23.1790   -1.7390   18.9050 C.2    37  TYR37       0.2264
     27  O         22.2750   -2.5210   19.1790 O.2    37  TYR37      -0.2867
     28  CB        22.7770    0.6610   18.1820 C.3    37  TYR37       0.0534
     29  CG        21.9650    1.8630   18.5750 C.ar   37  TYR37      -0.0201
     30  CD1       22.0130    2.3820   19.8720 C.ar   37  TYR37      -0.0009
     31  CD2       21.1560    2.5080   17.6320 C.ar   37  TYR37      -0.0009
     32  CE1       21.2240    3.5150   20.2310 C.ar   37  TYR37       0.0417
     33  CE2       20.3850    3.6120   17.9660 C.ar   37  TYR37       0.0417
     34  CZ        20.4150    4.1190   19.2560 C.ar   37  TYR37       0.1957
     35  OH        19.6310    5.2290   19.5410 O.3    37  TYR37      -0.2866
     36  N         22.8260   -3.9000   22.1150 N.3    40  SER40      -0.1202
     37  CA        21.4870   -4.0170   22.6750 C.3    40  SER40       0.2020
     38  C         20.5760   -4.8490   21.7670 C.2    40  SER40       0.2618
     39  O         19.7360   -5.6230   22.2430 O.2    40  SER40      -0.2717
     40  CB        20.8930   -2.6460   22.9350 C.3    40  SER40       0.2103
     41  OG        20.5030   -2.0550   21.7140 O.3    40  SER40      -0.2182
     42  N         20.7910   -4.7340   20.4640 N.am   41  VAL41      -0.1979
     43  CA        19.8900   -5.3080   19.4890 C.3    41  VAL41       0.1595
     44  C         20.1560   -6.8230   19.3160 C.2    41  VAL41       0.2287
     45  O         19.2310   -7.5980   19.0380 O.2    41  VAL41      -0.2864
     46  CB        19.9760   -4.4900   18.1850 C.3    41  VAL41       0.0276
     47  CG1       19.7230   -5.3250   16.9740 C.3    41  VAL41       0.0022
     48  CG2       19.0140   -3.2280   18.2580 C.3    41  VAL41       0.0022
     49  N         17.7970   -9.3760   21.1100 N.3    44  ILE44      -0.1245
     50  CA        16.3890   -9.4210   20.7000 C.3    44  ILE44       0.1561
     51  C         16.0960  -10.6180   19.7950 C.2    44  ILE44       0.2260
     52  O         16.6540  -10.7690   18.6970 O.2    44  ILE44      -0.2867
     53  CB        15.9260   -8.0670   20.0610 C.3    44  ILE44       0.0252
     54  CG1       16.2820   -6.9080   20.9800 C.3    44  ILE44       0.0019
     55  CG2       14.4050   -8.0410   19.7940 C.3    44  ILE44       0.0019
     56  CD1       15.9690   -5.5120   20.3690 C.3    44  ILE44       0.0001
     57  N         10.1300   -9.0280   18.4970 N.3    47  THR47      -0.1218
     58  CA         9.4240   -7.8880   19.0600 C.3    47  THR47       0.1862
     59  C          8.2660   -7.5070   18.1820 C.2    47  THR47       0.2287
     60  O          8.4380   -7.2640   16.9790 O.2    47  THR47      -0.2866
     61  CB        10.3420   -6.6210   19.2160 C.3    47  THR47       0.1770
     62  OG1       11.4030   -6.8800   20.1500 O.3    47  THR47      -0.2211
     63  CG2        9.5370   -5.4460   19.7180 C.3    47  THR47       0.0375
     64  N          4.8730   -4.5230   18.4770 N.3    49  PHE49      -0.1241
     65  CA         4.4670   -3.3570   19.2320 C.3    49  PHE49       0.1605
     66  C          3.3160   -2.5840   18.5690 C.2    49  PHE49       0.2264
     67  O          3.0100   -2.7810   17.3890 O.2    49  PHE49      -0.2867
     68  CB         5.6800   -2.4360   19.4890 C.3    49  PHE49       0.0534
     69  CG         6.2640   -1.8520   18.2400 C.ar   49  PHE49      -0.0203
     70  CD1        7.3670   -2.4430   17.6360 C.ar   49  PHE49      -0.0042
     71  CD2        5.6960   -0.7170   17.6530 C.ar   49  PHE49      -0.0042
     72  CE1        7.9070   -1.8960   16.4800 C.ar   49  PHE49      -0.0003
     73  CE2        6.2220   -0.1900   16.5040 C.ar   49  PHE49      -0.0003
     74  CZ         7.3230   -0.7850   15.9110 C.ar   49  PHE49      -0.0000
     75  N          1.6330    1.2540   17.8100 N.3    51  PHE51      -0.1241
     76  CA         1.7480    2.7120   17.8130 C.3    51  PHE51       0.1605
     77  C          0.3310    3.2810   17.9430 C.2    51  PHE51       0.2264
     78  O         -0.5250    2.9170   17.1510 O.2    51  PHE51      -0.2867
     79  CB         2.3630    3.2060   16.4930 C.3    51  PHE51       0.0534
     80  CG         3.8860    3.2390   16.4630 C.ar   51  PHE51      -0.0203
     81  CD1        4.5540    3.3270   15.2350 C.ar   51  PHE51      -0.0042
     82  CD2        4.6470    3.2090   17.6330 C.ar   51  PHE51      -0.0042
     83  CE1        5.9770    3.3980   15.1720 C.ar   51  PHE51      -0.0003
     84  CE2        6.0200    3.2640   17.5830 C.ar   51  PHE51      -0.0003
     85  CZ         6.7000    3.3820   16.3510 C.ar   51  PHE51      -0.0000
     86  N          3.4360    3.9230   22.8610 N.3    62  LEU62      -0.1245
     87  CA         4.0650    2.6860   22.4000 C.3    62  LEU62       0.1561
     88  C          3.8030    1.5610   23.3820 C.2    62  LEU62       0.2260
     89  O          4.1190    1.6950   24.5630 O.2    62  LEU62      -0.2867
     90  CB         5.5960    2.8800   22.2480 C.3    62  LEU62       0.0270
     91  CG         6.4900    1.6520   22.0330 C.3    62  LEU62       0.0019
     92  CD1        6.2550    1.0360   20.6700 C.3    62  LEU62       0.0001
     93  CD2        7.9900    2.0020   22.2380 C.3    62  LEU62       0.0001
     94  N          4.9510   -2.2770   23.7470 N.3    64  GLU64      -0.1245
     95  CA         5.9840   -3.0900   23.1440 C.3    64  GLU64       0.1567
     96  C          6.0980   -4.4470   23.8100 C.2    64  GLU64       0.2260
     97  O          6.1210   -4.5370   25.0390 O.2    64  GLU64      -0.2867
     98  CB         7.3300   -2.3460   23.2190 C.3    64  GLU64       0.0388
     99  CG         8.5260   -3.1510   22.7480 C.3    64  GLU64       0.1160
    100  CD         9.8190   -2.4000   23.0210 C.2    64  GLU64       0.3649
    101  OE1       10.2840   -1.7060   22.1030 O.co2  64  GLU64      -0.2457
    102  OE2       10.3310   -2.4470   24.1640 O.co2  64  GLU64      -0.2457
    103  N          8.6440   -7.4600   23.7440 N.3    66  GLN66      -0.1245
    104  CA         9.9670   -7.8820   23.3240 C.3    66  GLN66       0.1566
    105  C         10.3910   -9.2300   23.9380 C.2    66  GLN66       0.2260
    106  O         10.2800   -9.4340   25.1490 O.2    66  GLN66      -0.2867
    107  CB        10.9630   -6.7880   23.6810 C.3    66  GLN66       0.0367
    108  CG        12.3910   -7.1290   23.3760 C.3    66  GLN66       0.0905
    109  CD        13.2660   -5.8990   23.3380 C.2    66  GLN66       0.2608
    110  OE1       14.1190   -5.7290   24.1860 O.2    66  GLN66      -0.2717
    111  NE2       13.0380   -5.0290   22.3700 N.am   66  GLN66      -0.0878
    112  N          6.5140    8.0680   22.9770 N.3    79  LEU79      -0.1245
    113  CA         7.5340    8.5810   22.0930 C.3    79  LEU79       0.1561
    114  C          7.2150   10.0370   21.7660 C.2    79  LEU79       0.2260
    115  O          6.0350   10.3610   21.5830 O.2    79  LEU79      -0.2867
    116  CB         7.4860    7.7460   20.8260 C.3    79  LEU79       0.0270
    117  CG         7.7020    6.2190   21.0290 C.3    79  LEU79       0.0019
    118  CD1        7.9410    5.5710   19.7100 C.3    79  LEU79       0.0001
    119  CD2        8.8870    6.0020   21.9260 C.3    79  LEU79       0.0001
    120  N         11.4200   10.8140   15.7120 N.3    88  VAL88      -0.1245
    121  CA        10.6580   10.3600   16.8530 C.3    88  VAL88       0.1561
    122  C         11.7110   10.1220   17.9330 C.2    88  VAL88       0.2260
    123  O         12.8470    9.7280   17.6260 O.2    88  VAL88      -0.2867
    124  CB         9.9150    9.0360   16.5020 C.3    88  VAL88       0.0252
    125  CG1        9.3620    8.3290   17.7540 C.3    88  VAL88       0.0019
    126  CG2        8.7950    9.2820   15.4650 C.3    88  VAL88       0.0019
    127  N         12.6590    8.4300   21.9570 N.3    90  ARG90      -0.1245
    128  CA        12.3180    7.4970   23.0340 C.3    90  ARG90       0.1563
    129  C         13.3110    7.7150   24.1710 C.2    90  ARG90       0.2260
    130  O         14.5070    7.8350   23.9320 O.2    90  ARG90      -0.2867
    131  CB        12.4010    6.0570   22.5150 C.3    90  ARG90       0.0307
    132  CG        12.2050    4.9870   23.5730 C.3    90  ARG90       0.0489
    133  CD        11.9350    3.6370   22.9290 C.3    90  ARG90       0.2205
    134  NE        11.2840    2.7250   23.8690 N.pl3  90  ARG90      -0.0865
    135  CZ        11.0780    1.4330   23.6480 C.cat  90  ARG90       0.5346
    136  NH1       11.4750    0.8780   22.5030 N.pl3  90  ARG90       0.1354
    137  NH2       10.4600    0.6880   24.5730 N.pl3  90  ARG90       0.1354
    138  N         16.8160    8.8420   22.9000 N.3    97  HIS97      -0.1241
    139  CA        17.2640    8.2940   21.6230 C.3    97  HIS97       0.1621
    140  C         16.3950    8.8580   20.5250 C.2    97  HIS97       0.2264
    141  O         15.2140    8.7850   20.6190 O.2    97  HIS97      -0.2867
    142  CB        17.1350    6.7790   21.6480 C.3    97  HIS97       0.0745
    143  CG        17.9240    6.1440   22.7400 C.ar   97  HIS97       0.0817
    144  ND1       19.1540    5.5630   22.5210 N.ar   97  HIS97      -0.2268
    145  CD2       17.6740    6.0200   24.0640 C.ar   97  HIS97       0.1154
    146  CE1       19.6190    5.0840   23.6630 C.ar   97  HIS97       0.1986
    147  NE2       18.7390    5.3480   24.6150 N.ar   97  HIS97      -0.2212
    148  N         15.3640    9.0290   16.3890 N.3    99  ALA99      -0.1245
    149  CA        15.4760    8.2820   15.1190 C.3    99  ALA99       0.1562
    150  C         14.6820    8.9460   14.0320 C.2    99  ALA99       0.2260
    151  O         13.6250    9.4940   14.2980 O.2    99  ALA99      -0.2867
    152  CB        15.0370    6.7710   15.2740 C.3    99  ALA99       0.0290
    153  N         13.3910    2.9330   10.8730 N.3   112  PHE112     -0.1241
    154  CA        13.9180    4.0370   11.6730 C.3   112  PHE112      0.1605
    155  C         15.4250    4.0980   11.4140 C.2   112  PHE112      0.2264
    156  O         16.1010    3.0630   11.3550 O.2   112  PHE112     -0.2867
    157  CB        13.5570    3.8600   13.1520 C.3   112  PHE112      0.0534
    158  CG        12.1090    4.1960   13.4420 C.ar  112  PHE112     -0.0203
    159  CD1       11.7080    5.5450   13.4830 C.ar  112  PHE112     -0.0042
    160  CD2       11.1450    3.1980   13.6010 C.ar  112  PHE112     -0.0042
    161  CE1       10.3800    5.9010   13.7220 C.ar  112  PHE112     -0.0003
    162  CE2        9.7810    3.5530   13.8330 C.ar  112  PHE112     -0.0003
    163  CZ         9.4140    4.8950   13.8900 C.ar  112  PHE112     -0.0000
    164  N         16.7530    0.2950   11.2490 N.3   125  SER125     -0.1217
    165  CA        15.9710   -0.8510   11.7180 C.3   125  SER125      0.1889
    166  C         14.6900   -0.9340   10.8740 C.2   125  SER125      0.2288
    167  O         14.1710    0.0880   10.4030 O.2   125  SER125     -0.2866
    168  CB        15.7530   -0.7910   13.2400 C.3   125  SER125      0.2089
    169  OG        15.0910    0.3970   13.6390 O.3   125  SER125     -0.2183
    170  N         10.8290   -2.6900    9.9540 N.3   127  TYR127     -0.1241
    171  CA         9.5790   -3.1410   10.5790 C.3   127  TYR127      0.1605
    172  C          8.5860   -3.4260    9.4990 C.2   127  TYR127      0.2264
    173  O          8.6530   -2.7810    8.4600 O.2   127  TYR127     -0.2867
    174  CB         9.0320   -2.0640   11.5210 C.3   127  TYR127      0.0534
    175  CG        10.0640   -1.6310   12.5410 C.ar  127  TYR127     -0.0201
    176  CD1       11.0260   -0.6790   12.2180 C.ar  127  TYR127     -0.0009
    177  CD2       10.1220   -2.2270   13.8070 C.ar  127  TYR127     -0.0009
    178  CE1       11.9660   -0.2850   13.1370 C.ar  127  TYR127      0.0417
    179  CE2       11.0880   -1.8350   14.7370 C.ar  127  TYR127      0.0417
    180  CZ        11.9860   -0.8670   14.3880 C.ar  127  TYR127      0.1957
    181  OH        12.9520   -0.4610   15.2770 O.3   127  TYR127     -0.2866
@<TRIPOS>BOND
     1   173   172    2
     2   172   171    1
     3   170   171    1
     4   167   166    2
     5   171   174    1
     6   153   154    1
     7   166   165    1
     8   164   165    1
     9   156   155    2
    10   155   154    1
    11   174   175    1
    12   154   157    1
    13   165   168    1
    14   176   175   ar
    15   176   178   ar
    16    13    14    1
    17   175   177   ar
    18    15    14    1
    19    15    16    2
    20    14    17    1
    21   178   180   ar
    22   157   158    1
    23   168   169    1
    24     3     4    2
    25     3     2    1
    26   158   159   ar
    27   158   160   ar
    28   159   161   ar
    29   160   162   ar
    30   161   163   ar
    31   177   179   ar
    32   162   163   ar
    33   150   151    2
    34   150   149    1
    35    17    18    1
    36    20    18   ar
    37    20    22   ar
    38     2     1    1
    39     2     5    1
    40    18    19   ar
    41    22    23   ar
    42   180   179   ar
    43   180   181    1
    44    10     8   ar
    45    10    11   ar
    46     8     6   ar
    47    19    21   ar
    48    23    21   ar
    49   149   152    1
    50   149   148    1
    51    83    81   ar
    52    83    85   ar
    53    81    80   ar
    54    12    11    1
    55    11     9   ar
    56   126   124    1
    57     6     5    1
    58     6     7   ar
    59   120   121    1
    60    74    72   ar
    61    74    73   ar
    62     9     7   ar
    63    85    84   ar
    64    80    79    1
    65    80    82   ar
    66    72    70   ar
    67    79    76    1
    68   124   121    1
    69   124   125    1
    70    73    71   ar
    71   121   122    1
    72    47    46    1
    73    60    59    2
    74    78    77    2
    75    67    66    2
    76    84    82   ar
    77   123   122    2
    78    31    33   ar
    79    31    29   ar
    80    70    69   ar
    81    71    69   ar
    82    75    76    1
    83    76    77    1
    84    33    34   ar
    85    59    58    1
    86    28    29    1
    87    28    25    1
    88    46    48    1
    89    46    43    1
    90    69    68    1
    91    64    65    1
    92    57    58    1
    93    66    65    1
    94    29    30   ar
    95    52    51    2
    96    26    27    2
    97    26    25    1
    98    45    44    2
    99    58    61    1
   100    61    63    1
   101    61    62    1
   102    65    68    1
   103    34    35    1
   104    34    32   ar
   105    44    43    1
   106    25    24    1
   107    43    42    1
   108   118   117    1
   109    55    53    1
   110    51    50    1
   111    30    32   ar
   112    53    50    1
   113    53    54    1
   114    56    54    1
   115    42    38   am
   116   140   141    2
   117   140   139    1
   118    92    91    1
   119    50    49    1
   120   116   117    1
   121   116   113    1
   122   117   119    1
   123   115   114    2
   124   139   142    1
   125   139   138    1
   126   142   143    1
   127    41    40    1
   128   114   113    1
   129    38    39    2
   130    38    37    1
   131   127   128    1
   132    91    93    1
   133    91    90    1
   134   113   112    1
   135   101   100   ar
   136    36    37    1
   137    90    87    1
   138   111   109   am
   139    87    86    1
   140    87    88    1
   141   136   135    1
   142   131   128    1
   143   131   132    1
   144   144   143   ar
   145   144   146   ar
   146    37    40    1
   147   143   145   ar
   148    99   100    1
   149    99    98    1
   150   133   132    1
   151   133   134    1
   152   100   102   ar
   153   128   129    1
   154    95    98    1
   155    95    94    1
   156    95    96    1
   157   104   107    1
   158   104   103    1
   159   104   105    1
   160   109   108    1
   161   109   110    2
   162   108   107    1
   163    88    89    2
   164   135   134    2
   165   135   137    1
   166   146   147   ar
   167    96    97    2
   168   130   129    2
   169   105   106    2
   170   145   147   ar
