@<TRIPOS>MOLECULE
tmp/3apvA00.pdb
 173 165 0 0 0
SMALL
GASTEIGER

@<TRIPOS>ATOM
      1  N         23.6220   -2.0880   12.1230 N.3    30  PHE30      -0.1241
      2  CA        24.1070   -0.7570   12.5360 C.3    30  PHE30       0.1605
      3  C         25.6260   -0.7310   12.4940 C.2    30  PHE30       0.2264
      4  O         26.2670   -1.7840   12.6150 O.2    30  PHE30      -0.2867
      5  CB        23.7300   -0.4210   13.9920 C.3    30  PHE30       0.0534
      6  CG        22.2760   -0.6230   14.3380 C.ar   30  PHE30      -0.0203
      7  CD1       21.7980   -1.8880   14.7530 C.ar   30  PHE30      -0.0042
      8  CD2       21.4060    0.4360   14.2960 C.ar   30  PHE30      -0.0042
      9  CE1       20.4730   -2.0560   15.0870 C.ar   30  PHE30      -0.0003
     10  CE2       20.0940    0.2880   14.6280 C.ar   30  PHE30      -0.0003
     11  CZ        19.6140   -0.9530   15.0210 C.ar   30  PHE30      -0.0000
     12  N         24.1300   -0.2890   19.9150 N.3    35  TYR35      -0.1241
     13  CA        22.8690   -0.7880   19.3670 C.3    35  TYR35       0.1605
     14  C         23.0210   -2.2460   18.8810 C.2    35  TYR35       0.2264
     15  O         22.1380   -3.0650   19.1170 O.2    35  TYR35      -0.2867
     16  CB        22.3900    0.1140   18.2340 C.3    35  TYR35       0.0534
     17  CG        21.5730    1.3330   18.6520 C.ar   35  TYR35      -0.0201
     18  CD1       21.0590    1.4720   19.9480 C.ar   35  TYR35      -0.0009
     19  CD2       21.2400    2.3170   17.7120 C.ar   35  TYR35      -0.0009
     20  CE1       20.2500    2.6080   20.3000 C.ar   35  TYR35       0.0417
     21  CE2       20.4460    3.4410   18.0600 C.ar   35  TYR35       0.0417
     22  CZ        19.9710    3.5890   19.3410 C.ar   35  TYR35       0.1957
     23  OH        19.1840    4.7070   19.6460 O.3    35  TYR35      -0.2866
     24  N         22.7860   -4.4360   22.0910 N.3    38  SER38      -0.1202
     25  CA        21.4850   -4.6190   22.7370 C.3    38  SER38       0.2020
     26  C         20.4980   -5.3630   21.8490 C.2    38  SER38       0.2618
     27  O         19.7190   -6.2010   22.3330 O.2    38  SER38      -0.2717
     28  CB        20.8930   -3.2870   23.2160 C.3    38  SER38       0.2103
     29  OG        20.6650   -2.4110   22.1310 O.3    38  SER38      -0.2182
     30  N         20.5560   -5.0830   20.5540 N.am   39  VAL39      -0.1979
     31  CA        19.5640   -5.6050   19.6210 C.3    39  VAL39       0.1595
     32  C         19.8120   -7.0940   19.2970 C.2    39  VAL39       0.2287
     33  O         18.8730   -7.8190   18.9490 O.2    39  VAL39      -0.2864
     34  CB        19.4960   -4.7390   18.3560 C.3    39  VAL39       0.0276
     35  CG1       18.7660   -5.4560   17.2200 C.3    39  VAL39       0.0022
     36  CG2       18.8690   -3.3320   18.6900 C.3    39  VAL39       0.0022
     37  N          4.6570   -4.7440   18.3900 N.3    47  PHE47      -0.1241
     38  CA         4.3090   -3.5430   19.1210 C.3    47  PHE47       0.1605
     39  C          3.1030   -2.8310   18.4990 C.2    47  PHE47       0.2264
     40  O          2.7170   -3.1120   17.3640 O.2    47  PHE47      -0.2867
     41  CB         5.5400   -2.5940   19.3070 C.3    47  PHE47       0.0534
     42  CG         6.0910   -2.0520   18.0270 C.ar   47  PHE47      -0.0203
     43  CD1        7.1770   -2.6600   17.4110 C.ar   47  PHE47      -0.0042
     44  CD2        5.5350   -0.9260   17.4210 C.ar   47  PHE47      -0.0042
     45  CE1        7.6960   -2.1460   16.2170 C.ar   47  PHE47      -0.0003
     46  CE2        6.0370   -0.4470   16.2150 C.ar   47  PHE47      -0.0003
     47  CZ         7.1080   -1.0680   15.6180 C.ar   47  PHE47      -0.0000
     48  N          1.5310    1.1230   17.7350 N.3    49  PHE49      -0.1241
     49  CA         1.5650    2.5930   17.7460 C.3    49  PHE49       0.1605
     50  C          0.1680    3.1090   17.8080 C.2    49  PHE49       0.2264
     51  O         -0.6680    2.6860   17.0160 O.2    49  PHE49      -0.2867
     52  CB         2.2180    3.1720   16.4860 C.3    49  PHE49       0.0534
     53  CG         3.7280    3.0760   16.4680 C.ar   49  PHE49      -0.0203
     54  CD1        4.4090    3.0840   15.2570 C.ar   49  PHE49      -0.0042
     55  CD2        4.4600    2.9890   17.6440 C.ar   49  PHE49      -0.0042
     56  CE1        5.8350    3.0070   15.2190 C.ar   49  PHE49      -0.0003
     57  CE2        5.8750    2.9030   17.6040 C.ar   49  PHE49      -0.0003
     58  CZ         6.5420    2.9260   16.3980 C.ar   49  PHE49      -0.0000
     59  N          3.2430    3.7660   22.8050 N.3    60  LEU60      -0.1245
     60  CA         3.8600    2.4980   22.3750 C.3    60  LEU60       0.1561
     61  C          3.5440    1.3640   23.3480 C.2    60  LEU60       0.2260
     62  O          3.8430    1.4820   24.5190 O.2    60  LEU60      -0.2867
     63  CB         5.3910    2.6750   22.2100 C.3    60  LEU60       0.0270
     64  CG         6.2910    1.4570   21.9780 C.3    60  LEU60       0.0019
     65  CD1        6.0000    0.7250   20.6630 C.3    60  LEU60       0.0001
     66  CD2        7.8150    1.8210   22.1310 C.3    60  LEU60       0.0001
     67  N          4.8310   -2.2820   23.7230 N.3    62  GLU62      -0.1245
     68  CA         5.8820   -3.1230   23.1460 C.3    62  GLU62       0.1567
     69  C          6.0020   -4.4850   23.7940 C.2    62  GLU62       0.2260
     70  O          6.0470   -4.6020   25.0250 O.2    62  GLU62      -0.2867
     71  CB         7.2440   -2.4140   23.2100 C.3    62  GLU62       0.0388
     72  CG         8.3490   -3.2080   22.5590 C.3    62  GLU62       0.1160
     73  CD         9.7250   -2.5810   22.7900 C.2    62  GLU62       0.3649
     74  OE1       10.2890   -2.0480   21.8160 O.co2  62  GLU62      -0.2457
     75  OE2       10.2240   -2.6200   23.9370 O.co2  62  GLU62      -0.2457
     76  N          6.5350    7.7610   22.7310 N.3    77  LEU77      -0.1245
     77  CA         7.5340    8.3490   21.8630 C.3    77  LEU77       0.1561
     78  C          7.1410    9.8190   21.6040 C.2    77  LEU77       0.2260
     79  O          5.9450   10.1340   21.5090 O.2    77  LEU77      -0.2867
     80  CB         7.5520    7.5310   20.5720 C.3    77  LEU77       0.0270
     81  CG         7.7950    6.0090   20.7430 C.3    77  LEU77       0.0019
     82  CD1        7.9930    5.3310   19.4050 C.3    77  LEU77       0.0001
     83  CD2        9.0200    5.7310   21.6190 C.3    77  LEU77       0.0001
     84  N         11.3820   10.4850   15.5780 N.3    86  VAL86      -0.1231
     85  CA        10.6460   10.1310   16.7680 C.3    86  VAL86       0.1692
     86  C         11.7140    9.8830   17.8290 C.2    86  VAL86       0.2593
     87  O         12.8550    9.5140   17.5230 O.2    86  VAL86      -0.2718
     88  CB         9.7330    8.8920   16.5270 C.3    86  VAL86       0.0266
     89  CG1        8.9240    8.6080   17.7430 C.3    86  VAL86       0.0020
     90  CG2        8.7490    9.1300   15.3880 C.3    86  VAL86       0.0020
     91  N         11.3880   10.1080   19.0820 N.am   87  SER87      -0.1938
     92  CA        12.3800    9.9170   20.1200 C.3    87  SER87       0.2055
     93  C         11.7490    9.2770   21.3650 C.2    87  SER87       0.2642
     94  O         10.5200    9.2320   21.5070 O.2    87  SER87      -0.2714
     95  CB        13.0850   11.2400   20.4640 C.3    87  SER87       0.2130
     96  OG        12.1860   12.1810   21.0100 O.3    87  SER87      -0.2179
     97  N         12.6050    8.7910   22.2510 N.am   88  ARG88      -0.1977
     98  CA        12.2110    8.1750   23.5120 C.3    88  ARG88       0.1597
     99  C         13.4460    8.1560   24.4020 C.2    88  ARG88       0.2287
    100  O         14.5270    7.7560   23.9770 O.2    88  ARG88      -0.2864
    101  CB        11.7060    6.7790   23.2400 C.3    88  ARG88       0.0334
    102  CG        11.3740    5.9330   24.4610 C.3    88  ARG88       0.0492
    103  CD        11.8840    4.5310   24.1610 C.3    88  ARG88       0.2205
    104  NE        11.2680    3.5010   24.9830 N.pl3  88  ARG88      -0.0865
    105  CZ        11.2200    2.2280   24.6240 C.cat  88  ARG88       0.5346
    106  NH1       11.7410    1.8580   23.4670 N.pl3  88  ARG88       0.1354
    107  NH2       10.6440    1.3250   25.4120 N.pl3  88  ARG88       0.1354
    108  N         15.2810    6.4910   27.3240 N.3    90  GLU90      -0.1245
    109  CA        15.2220    5.1800   27.9850 C.3    90  GLU90       0.1567
    110  C         16.5480    4.7380   28.5740 C.2    90  GLU90       0.2260
    111  O         17.6030    4.8080   27.9170 O.2    90  GLU90      -0.2867
    112  CB        14.6400    4.0670   27.0870 C.3    90  GLU90       0.0388
    113  CG        15.0430    4.1230   25.6140 C.3    90  GLU90       0.1160
    114  CD        15.3850    2.7500   25.0140 C.2    90  GLU90       0.3649
    115  OE1       15.5940    1.7870   25.7930 O.co2  90  GLU90      -0.2457
    116  OE2       15.4660    2.6520   23.7610 O.co2  90  GLU90      -0.2457
    117  N         16.8910    8.6140   22.8700 N.3    95  HIS95      -0.1226
    118  CA        17.1190    7.9520   21.5950 C.3    95  HIS95       0.1752
    119  C         16.2640    8.6150   20.5160 C.2    95  HIS95       0.2596
    120  O         15.0900    8.8800   20.7320 O.2    95  HIS95      -0.2718
    121  CB        16.7670    6.4610   21.7080 C.3    95  HIS95       0.0759
    122  CG        17.5740    5.7350   22.7390 C.ar   95  HIS95       0.0818
    123  ND1       18.6900    4.9790   22.4250 N.ar   95  HIS95      -0.2268
    124  CD2       17.4550    5.6940   24.0870 C.ar   95  HIS95       0.1154
    125  CE1       19.2030    4.4810   23.5390 C.ar   95  HIS95       0.1986
    126  NE2       18.4780    4.9150   24.5620 N.ar   95  HIS95      -0.2212
    127  N         16.8520    8.8720   19.3550 N.am   96  VAL96      -0.1966
    128  CA        16.1460    9.4890   18.2470 C.3    96  VAL96       0.1727
    129  C         16.3140    8.6250   17.0030 C.2    96  VAL96       0.2616
    130  O         17.3670    7.9910   16.8080 O.2    96  VAL96      -0.2715
    131  CB        16.7090   10.8890   17.9870 C.3    96  VAL96       0.0290
    132  CG1       15.8950   11.5980   16.9450 C.3    96  VAL96       0.0023
    133  CG2       16.6830   11.7350   19.2810 C.3    96  VAL96       0.0023
    134  N         15.2600    8.5500   16.1880 N.am   97  ALA97      -0.1977
    135  CA        15.3340    7.8160   14.9260 C.3    97  ALA97       0.1597
    136  C         14.5160    8.5330   13.9040 C.2    97  ALA97       0.2287
    137  O         13.4020    8.9560   14.2050 O.2    97  ALA97      -0.2864
    138  CB        14.7930    6.3660   15.0930 C.3    97  ALA97       0.0319
    139  N         13.1150    2.4730   10.7090 N.3   110  PHE110     -0.1241
    140  CA        13.6350    3.5630   11.5270 C.3   110  PHE110      0.1605
    141  C         15.1320    3.6700   11.2640 C.2   110  PHE110      0.2264
    142  O         15.8380    2.6370   11.1820 O.2   110  PHE110     -0.2867
    143  CB        13.2960    3.3950   13.0320 C.3   110  PHE110      0.0534
    144  CG        11.8590    3.7600   13.3470 C.ar  110  PHE110     -0.0203
    145  CD1       11.4880    5.1010   13.4640 C.ar  110  PHE110     -0.0042
    146  CD2       10.8770    2.7880   13.4620 C.ar  110  PHE110     -0.0042
    147  CE1       10.1710    5.4490   13.7260 C.ar  110  PHE110     -0.0003
    148  CE2        9.5340    3.1390   13.7050 C.ar  110  PHE110     -0.0003
    149  CZ         9.1930    4.4610   13.8600 C.ar  110  PHE110     -0.0000
    150  N         18.7640    5.1710   12.5160 N.3   112  SER112     -0.1217
    151  CA        19.4840    5.6380   13.7120 C.3   112  SER112      0.1889
    152  C         20.8120    6.2560   13.2760 C.2   112  SER112      0.2288
    153  O         21.4860    5.7230   12.3720 O.2   112  SER112     -0.2866
    154  CB        19.7510    4.4450   14.6590 C.3   112  SER112      0.2089
    155  OG        18.5010    3.7990   14.9740 O.3   112  SER112     -0.2183
    156  N         16.4900   -0.0890   10.9920 N.3   123  SER123     -0.1217
    157  CA        15.6730   -1.2070   11.5210 C.3   123  SER123      0.1889
    158  C         14.4460   -1.2680   10.6690 C.2   123  SER123      0.2288
    159  O         13.8810   -0.2210   10.2820 O.2   123  SER123     -0.2866
    160  CB        15.2120   -0.9520   12.9590 C.3   123  SER123      0.2089
    161  OG        16.3600   -0.8090   13.7770 O.3   123  SER123     -0.2183
    162  N         10.6200   -3.1190    9.8010 N.3   125  TYR125     -0.1241
    163  CA         9.3810   -3.4970   10.4610 C.3   125  TYR125      0.1605
    164  C          8.3930   -3.7810    9.4040 C.2   125  TYR125      0.2264
    165  O          8.4470   -3.1420    8.3700 O.2   125  TYR125     -0.2867
    166  CB         8.8280   -2.3390   11.3080 C.3   125  TYR125      0.0534
    167  CG         9.7900   -1.9750   12.3780 C.ar  125  TYR125     -0.0201
    168  CD1       10.8260   -1.0830   12.1060 C.ar  125  TYR125     -0.0009
    169  CD2        9.7820   -2.6450   13.6120 C.ar  125  TYR125     -0.0009
    170  CE1       11.7440   -0.7890   13.0280 C.ar  125  TYR125      0.0417
    171  CE2       10.7240   -2.3320   14.5860 C.ar  125  TYR125      0.0417
    172  CZ        11.6970   -1.3780   14.2670 C.ar  125  TYR125      0.1957
    173  OH        12.6570   -0.9960   15.1720 O.3   125  TYR125     -0.2866
@<TRIPOS>BOND
     1   165   164    2
     2   164   163    1
     3   162   163    1
     4   159   158    2
     5   163   166    1
     6   158   157    1
     7   139   140    1
     8   156   157    1
     9   142   141    2
    10   141   140    1
    11   166   167    1
    12   157   160    1
    13   140   143    1
    14   168   167   ar
    15   168   170   ar
    16     1     2    1
    17   153   152    2
    18   167   169   ar
    19     3     2    1
    20     3     4    2
    21   150   151    1
    22     2     5    1
    23   160   161    1
    24   170   172   ar
    25   143   144    1
    26   152   151    1
    27   144   146   ar
    28   144   145   ar
    29   146   148   ar
    30   145   147   ar
    31   169   171   ar
    32   148   149   ar
    33   151   154    1
    34   147   149   ar
    35   136   137    2
    36   136   135    1
    37     5     6    1
    38   172   171   ar
    39   172   173    1
    40     8     6   ar
    41     8    10   ar
    42     6     7   ar
    43    10    11   ar
    44   154   155    1
    45     7     9   ar
    46   135   138    1
    47   135   134    1
    48    11     9   ar
    49    56    54   ar
    50    56    58   ar
    51    54    53   ar
    52    90    88    1
    53    84    85    1
    54    47    46   ar
    55    47    45   ar
    56   134   129   am
    57    46    44   ar
    58    45    43   ar
    59    58    57   ar
    60    53    52    1
    61    53    55   ar
    62    52    49    1
    63    88    85    1
    64    88    89    1
    65    85    86    1
    66   130   129    2
    67   132   131    1
    68   129   128    1
    69    51    50    2
    70    35    34    1
    71    40    39    2
    72    43    42   ar
    73    44    42   ar
    74    87    86    2
    75    57    55   ar
    76    19    21   ar
    77    19    17   ar
    78    48    49    1
    79    49    50    1
    80    86    91   am
    81   131   128    1
    82   131   133    1
    83    42    41    1
    84    21    22   ar
    85    16    17    1
    86    16    13    1
    87   128   127    1
    88    34    36    1
    89    34    31    1
    90    37    38    1
    91    39    38    1
    92    17    18   ar
    93    14    15    2
    94    14    13    1
    95    33    32    2
    96    91    92    1
    97    38    41    1
    98    32    31    1
    99    22    23    1
   100    22    20   ar
   101   127   119   am
   102    13    12    1
   103    82    81    1
   104    31    30    1
   105    18    20   ar
   106    92    95    1
   107    92    93    1
   108    95    96    1
   109   119   120    2
   110   119   118    1
   111    30    26   am
   112    80    81    1
   113    80    77    1
   114    65    64    1
   115    81    83    1
   116    93    94    2
   117    93    97   am
   118    79    78    2
   119   118   121    1
   120   118   117    1
   121    78    77    1
   122   121   122    1
   123    74    73   ar
   124    26    27    2
   125    26    25    1
   126    77    76    1
   127    64    66    1
   128    64    63    1
   129    24    25    1
   130    29    28    1
   131    63    60    1
   132    97    98    1
   133    60    59    1
   134    60    61    1
   135   123   122   ar
   136   123   125   ar
   137    72    73    1
   138    72    71    1
   139    25    28    1
   140   122   124   ar
   141    73    75   ar
   142    68    71    1
   143    68    67    1
   144    68    69    1
   145   101    98    1
   146   101   102    1
   147    61    62    2
   148   106   105    1
   149    98    99    1
   150   125   126   ar
   151   116   114   ar
   152    69    70    2
   153   100    99    2
   154   124   126   ar
   155   103   102    1
   156   103   104    1
   157   105   104    2
   158   105   107    1
   159   114   113    1
   160   114   115   ar
   161   113   112    1
   162   112   109    1
   163   108   109    1
   164   111   110    2
   165   109   110    1
