@<TRIPOS>MOLECULE
tmp/3apwB00.pdb
 203 191 0 0 0
SMALL
GASTEIGER

@<TRIPOS>ATOM
      1  N          7.0350    8.2120   45.7020 N.3    26  TYR26      -0.1241
      2  CA         8.4740    8.2850   46.0010 C.3    26  TYR26       0.1605
      3  C          8.7850    9.4840   46.9010 C.2    26  TYR26       0.2264
      4  O          8.5340   10.6260   46.5250 O.2    26  TYR26      -0.2867
      5  CB         9.3080    8.3120   44.7000 C.3    26  TYR26       0.0534
      6  CG        10.7910    8.6310   44.8710 C.ar   26  TYR26      -0.0201
      7  CD1       11.4560    9.4640   43.9690 C.ar   26  TYR26      -0.0009
      8  CD2       11.5250    8.1050   45.9360 C.ar   26  TYR26      -0.0009
      9  CE1       12.8060    9.7750   44.1320 C.ar   26  TYR26       0.0417
     10  CE2       12.8610    8.4010   46.1030 C.ar   26  TYR26       0.0417
     11  CZ        13.5000    9.2320   45.2040 C.ar   26  TYR26       0.1957
     12  OH        14.8340    9.5050   45.3920 O.3    26  TYR26      -0.2866
     13  N         22.1930    6.8130   48.4330 N.3    31  PHE31      -0.1241
     14  CA        22.9710    5.6610   47.9910 C.3    31  PHE31       0.1605
     15  C         24.4670    5.8950   48.1550 C.2    31  PHE31       0.2264
     16  O         24.9310    7.0310   48.0190 O.2    31  PHE31      -0.2867
     17  CB        22.6710    5.3470   46.5210 C.3    31  PHE31       0.0534
     18  CG        21.2130    5.0740   46.2210 C.ar   31  PHE31      -0.0203
     19  CD1       20.3580    6.1080   45.8470 C.ar   31  PHE31      -0.0042
     20  CD2       20.7050    3.7780   46.2880 C.ar   31  PHE31      -0.0042
     21  CE1       19.0140    5.8620   45.5580 C.ar   31  PHE31      -0.0003
     22  CE2       19.3590    3.5170   46.0010 C.ar   31  PHE31      -0.0003
     23  CZ        18.5110    4.5670   45.6320 C.ar   31  PHE31      -0.0000
     24  N         23.4490    5.0690   40.6980 N.3    36  TYR36      -0.1241
     25  CA        22.1430    5.3180   41.3110 C.3    36  TYR36       0.1605
     26  C         22.0400    6.7270   41.9130 C.2    36  TYR36       0.2264
     27  O         20.9520    7.3040   41.9610 O.2    36  TYR36      -0.2867
     28  CB        21.8430    4.2640   42.3860 C.3    36  TYR36       0.0534
     29  CG        21.2190    2.9800   41.8690 C.ar   36  TYR36      -0.0201
     30  CD1       21.7850    2.2760   40.7990 C.ar   36  TYR36      -0.0009
     31  CD2       20.0720    2.4560   42.4690 C.ar   36  TYR36      -0.0009
     32  CE1       21.2080    1.0930   40.3300 C.ar   36  TYR36       0.0417
     33  CE2       19.4910    1.2790   42.0130 C.ar   36  TYR36       0.0417
     34  CZ        20.0620    0.6020   40.9460 C.ar   36  TYR36       0.1957
     35  OH        19.4860   -0.5650   40.4990 O.3    36  TYR36      -0.2866
     36  N         21.7300    9.2690   38.8430 N.3    39  SER39      -0.1202
     37  CA        20.4870    9.0880   38.0840 C.3    39  SER39       0.2020
     38  C         19.2110    9.4360   38.8680 C.2    39  SER39       0.2618
     39  O         18.1390    9.5990   38.2760 O.2    39  SER39      -0.2717
     40  CB        20.4000    7.6680   37.5020 C.3    39  SER39       0.2103
     41  OG        19.8800    6.7470   38.4430 O.3    39  SER39      -0.2182
     42  N         19.3210    9.5360   40.1910 N.am   40  VAL40      -0.1979
     43  CA        18.1700    9.9050   41.0170 C.3    40  VAL40       0.1595
     44  C         18.1520   11.4070   41.3030 C.2    40  VAL40       0.2287
     45  O         17.1250   11.9530   41.7070 O.2    40  VAL40      -0.2864
     46  CB        18.0980    9.0700   42.3190 C.3    40  VAL40       0.0276
     47  CG1       16.9150    9.4910   43.1750 C.3    40  VAL40       0.0022
     48  CG2       17.9820    7.6010   41.9870 C.3    40  VAL40       0.0022
     49  N         15.2820   13.2370   39.4390 N.3    43  ILE43      -0.1245
     50  CA        13.8980   12.8050   39.7300 C.3    43  ILE43       0.1561
     51  C         13.2160   13.7900   40.6780 C.2    43  ILE43       0.2260
     52  O         13.5050   13.8280   41.8720 O.2    43  ILE43      -0.2867
     53  CB        13.7890   11.3460   40.2880 C.3    43  ILE43       0.0252
     54  CG1       14.3640   10.3330   39.3000 C.3    43  ILE43       0.0019
     55  CG2       12.3280   10.9860   40.5940 C.3    43  ILE43       0.0019
     56  CD1       14.6850    8.9920   39.9190 C.3    43  ILE43       0.0001
     57  N          7.7660   11.0690   41.7840 N.3    46  THR46      -0.1218
     58  CA         7.3210    9.8020   41.2040 C.3    46  THR46       0.1862
     59  C          6.1570    9.2250   42.0000 C.2    46  THR46       0.2287
     60  O          6.1370    9.2840   43.2250 O.2    46  THR46      -0.2866
     61  CB         8.4560    8.7250   41.1030 C.3    46  THR46       0.1770
     62  OG1        9.5360    9.2120   40.2970 O.3    46  THR46      -0.2211
     63  CG2        7.9410    7.4270   40.4810 C.3    46  THR46       0.0375
     64  N          3.6860    5.4260   41.4850 N.3    48  PHE48      -0.1241
     65  CA         3.4980    4.2090   40.7110 C.3    48  PHE48       0.1605
     66  C          2.4070    3.3220   41.3160 C.2    48  PHE48       0.2264
     67  O          2.0080    3.5100   42.4670 O.2    48  PHE48      -0.2867
     68  CB         4.8070    3.4160   40.6220 C.3    48  PHE48       0.0534
     69  CG         5.3620    3.0090   41.9650 C.ar   48  PHE48      -0.0203
     70  CD1        6.3070    3.8020   42.6080 C.ar   48  PHE48      -0.0042
     71  CD2        4.9490    1.8360   42.5780 C.ar   48  PHE48      -0.0042
     72  CE1        6.8180    3.4440   43.8300 C.ar   48  PHE48      -0.0003
     73  CE2        5.4460    1.4740   43.8140 C.ar   48  PHE48      -0.0003
     74  CZ         6.3890    2.2740   44.4420 C.ar   48  PHE48      -0.0000
     75  N          1.5950   -0.8540   41.9300 N.3    50  PHE50      -0.1241
     76  CA         1.8820   -2.2800   41.9120 C.3    50  PHE50       0.1605
     77  C          0.5620   -3.0400   41.7560 C.2    50  PHE50       0.2264
     78  O         -0.3170   -2.9760   42.6350 O.2    50  PHE50      -0.2867
     79  CB         2.5550   -2.7320   43.2170 C.3    50  PHE50       0.0534
     80  CG         3.9980   -2.3140   43.3630 C.ar   50  PHE50      -0.0203
     81  CD1        4.4750   -1.8800   44.5920 C.ar   50  PHE50      -0.0042
     82  CD2        4.8860   -2.3690   42.2850 C.ar   50  PHE50      -0.0042
     83  CE1        5.8180   -1.5030   44.7440 C.ar   50  PHE50      -0.0003
     84  CE2        6.2200   -1.9930   42.4330 C.ar   50  PHE50      -0.0003
     85  CZ         6.6870   -1.5590   43.6450 C.ar   50  PHE50      -0.0000
     86  N          4.0290   -2.9180   36.9600 N.3    61  LEU61      -0.1245
     87  CA         4.4840   -1.6500   37.4820 C.3    61  LEU61       0.1561
     88  C          4.1490   -0.5460   36.4990 C.2    61  LEU61       0.2260
     89  O          4.5250   -0.6100   35.3300 O.2    61  LEU61      -0.2867
     90  CB         6.0000   -1.7020   37.7390 C.3    61  LEU61       0.0270
     91  CG         6.6880   -0.4070   38.1640 C.3    61  LEU61       0.0019
     92  CD1        6.2350    0.0240   39.5320 C.3    61  LEU61       0.0001
     93  CD2        8.2390   -0.5370   38.1130 C.3    61  LEU61       0.0001
     94  N          4.7510    3.3300   36.3510 N.3    63  GLU63      -0.1245
     95  CA         5.3590    4.4870   37.0060 C.3    63  GLU63       0.1567
     96  C          5.2350    5.7780   36.2430 C.2    63  GLU63       0.2260
     97  O          5.3860    5.8280   35.0210 O.2    63  GLU63      -0.2867
     98  CB         6.7980    4.2440   37.4820 C.3    63  GLU63       0.0388
     99  CG         7.6970    3.5240   36.5460 C.3    63  GLU63       0.1160
    100  CD         9.1700    3.6630   36.9350 C.2    63  GLU63       0.3649
    101  OE1        9.5010    3.6350   38.1440 O.co2  63  GLU63      -0.2457
    102  OE2        9.9970    3.8020   36.0120 O.co2  63  GLU63      -0.2457
    103  N          6.8570    9.3610   36.4010 N.3    65  GLN65      -0.1245
    104  CA         8.0320   10.1220   36.8440 C.3    65  GLN65       0.1566
    105  C          8.1010   11.5230   36.2410 C.2    65  GLN65       0.2260
    106  O          7.8000   11.7120   35.0630 O.2    65  GLN65      -0.2867
    107  CB         9.3050    9.3980   36.4210 C.3    65  GLN65       0.0367
    108  CG         9.6330    8.1560   37.1810 C.3    65  GLN65       0.0905
    109  CD        11.0530    7.7100   36.9010 C.2    65  GLN65       0.2608
    110  OE1       12.0050    8.4720   37.1050 O.2    65  GLN65      -0.2717
    111  NE2       11.2060    6.4780   36.4030 N.am   65  GLN65      -0.0878
    112  N          7.9800   -6.2300   37.1910 N.3    78  LEU78      -0.1245
    113  CA         8.9830   -6.6450   38.1450 C.3    78  LEU78       0.1561
    114  C          8.8240   -8.1490   38.3440 C.2    78  LEU78       0.2260
    115  O          7.7020   -8.6500   38.4360 O.2    78  LEU78      -0.2867
    116  CB         8.8120   -5.8980   39.4770 C.3    78  LEU78       0.0270
    117  CG         8.8490   -4.3570   39.4950 C.3    78  LEU78       0.0019
    118  CD1        8.6290   -3.8190   40.8910 C.3    78  LEU78       0.0001
    119  CD2       10.1450   -3.7880   38.9110 C.3    78  LEU78       0.0001
    120  N         13.1330   -8.1260   44.5070 N.3    87  VAL87      -0.1245
    121  CA        12.3760   -7.7890   43.3160 C.3    87  VAL87       0.1561
    122  C         13.3650   -7.3150   42.2460 C.2    87  VAL87       0.2260
    123  O         14.2720   -6.5350   42.5350 O.2    87  VAL87      -0.2867
    124  CB        11.2990   -6.7300   43.6360 C.3    87  VAL87       0.0252
    125  CG1       10.9090   -5.9530   42.4000 C.3    87  VAL87       0.0019
    126  CG2       10.0760   -7.3900   44.2650 C.3    87  VAL87       0.0019
    127  N         14.4380   -6.0770   38.0440 N.3    89  ARG89      -0.1245
    128  CA        14.0600   -5.2450   36.8940 C.3    89  ARG89       0.1563
    129  C         15.2360   -5.1050   35.9310 C.2    89  ARG89       0.2260
    130  O         16.3880   -5.2280   36.3340 O.2    89  ARG89      -0.2867
    131  CB        13.6130   -3.8620   37.3710 C.3    89  ARG89       0.0307
    132  CG        12.9410   -2.9910   36.3200 C.3    89  ARG89       0.0489
    133  CD        12.7980   -1.5780   36.8520 C.3    89  ARG89       0.2205
    134  NE        11.9330   -0.7570   36.0150 N.pl3  89  ARG89      -0.0865
    135  CZ        11.5220    0.4660   36.3350 C.cat  89  ARG89       0.5346
    136  NH1       11.8920    1.0250   37.4860 N.pl3  89  ARG89       0.1354
    137  NH2       10.7330    1.1310   35.5040 N.pl3  89  ARG89       0.1354
    138  N         17.3130   -2.8440   32.9240 N.3    91  GLU91      -0.1245
    139  CA        17.6210   -1.5570   32.2810 C.3    91  GLU91       0.1567
    140  C         18.9990   -1.5990   31.6410 C.2    91  GLU91       0.2260
    141  O         20.0010   -1.8280   32.3210 O.2    91  GLU91      -0.2867
    142  CB        17.5580   -0.3970   33.2790 C.3    91  GLU91       0.0388
    143  CG        16.2100    0.3160   33.3560 C.3    91  GLU91       0.1160
    144  CD        16.1110    1.2710   34.5360 C.2    91  GLU91       0.3649
    145  OE1       17.0790    1.3600   35.3260 O.co2  91  GLU91      -0.2457
    146  OE2       15.0550    1.9290   34.6810 O.co2  91  GLU91      -0.2457
    147  N         18.6690   -5.2900   37.5270 N.3    96  HIS96      -0.1226
    148  CA        18.7390   -4.5680   38.7990 C.3    96  HIS96       0.1752
    149  C         17.9450   -5.3320   39.8530 C.2    96  HIS96       0.2596
    150  O         16.7930   -5.6950   39.6220 O.2    96  HIS96      -0.2718
    151  CB        18.1450   -3.1610   38.6580 C.3    96  HIS96       0.0759
    152  CG        18.8150   -2.3070   37.6250 C.ar   96  HIS96       0.0818
    153  ND1       19.6260   -1.2410   37.9540 N.ar   96  HIS96      -0.2268
    154  CD2       18.7770   -2.3440   36.2710 C.ar   96  HIS96       0.1154
    155  CE1       20.0660   -0.6650   36.8490 C.ar   96  HIS96       0.1986
    156  NE2       19.5680   -1.3170   35.8140 N.ar   96  HIS96      -0.2212
    157  N         18.5560   -5.5620   41.0130 N.am   97  VAL97      -0.1966
    158  CA        17.8990   -6.2880   42.1030 C.3    97  VAL97       0.1727
    159  C         17.7090   -5.3610   43.2990 C.2    97  VAL97       0.2616
    160  O         18.5360   -4.4860   43.5450 O.2    97  VAL97      -0.2715
    161  CB        18.7040   -7.5460   42.5370 C.3    97  VAL97       0.0290
    162  CG1       17.7910   -8.5650   43.2020 C.3    97  VAL97       0.0023
    163  CG2       19.4160   -8.1900   41.3490 C.3    97  VAL97       0.0023
    164  N         16.6120   -5.5530   44.0320 N.am   98  ALA98      -0.1977
    165  CA        16.3320   -4.7800   45.2470 C.3    98  ALA98       0.1597
    166  C         15.4780   -5.5510   46.2560 C.2    98  ALA98       0.2287
    167  O         14.5410   -6.2520   45.8720 O.2    98  ALA98      -0.2864
    168  CB        15.6660   -3.4480   44.8990 C.3    98  ALA98       0.0319
    169  N         12.8530    0.2880   49.6940 N.3   111  PHE111     -0.1241
    170  CA        13.6310   -0.6050   48.8670 C.3   111  PHE111      0.1605
    171  C         15.1090   -0.4140   49.1360 C.2   111  PHE111      0.2264
    172  O         15.5810    0.7090   49.3270 O.2   111  PHE111     -0.2867
    173  CB        13.3070   -0.3960   47.3930 C.3   111  PHE111      0.0534
    174  CG        12.0870   -1.1290   46.9490 C.ar  111  PHE111     -0.0203
    175  CD1       12.1600   -2.4720   46.6040 C.ar  111  PHE111     -0.0042
    176  CD2       10.8580   -0.4900   46.9010 C.ar  111  PHE111     -0.0042
    177  CE1       11.0260   -3.1630   46.2030 C.ar  111  PHE111     -0.0003
    178  CE2        9.7180   -1.1740   46.4990 C.ar  111  PHE111     -0.0003
    179  CZ         9.8030   -2.5090   46.1510 C.ar  111  PHE111     -0.0000
    180  N         19.0400   -1.3440   47.8580 N.3   113  SER113     -0.1217
    181  CA        19.8790   -1.7650   46.7430 C.3   113  SER113      0.1889
    182  C         21.2450   -2.2130   47.2450 C.2   113  SER113      0.2288
    183  O         21.8020   -1.6020   48.1590 O.2   113  SER113     -0.2866
    184  CB        20.0330   -0.6270   45.7330 C.3   113  SER113      0.2089
    185  OG        18.7720   -0.2430   45.2100 O.3   113  SER113     -0.2183
    186  N         15.6090    3.6050   49.2070 N.3   124  SER124     -0.1217
    187  CA        14.5260    4.3970   48.6210 C.3   124  SER124      0.1889
    188  C         13.2570    4.2360   49.4610 C.2   124  SER124      0.2288
    189  O         12.8860    3.1240   49.8210 O.2   124  SER124     -0.2866
    190  CB        14.2580    3.9620   47.1770 C.3   124  SER124      0.2089
    191  OG        15.4780    3.8680   46.4640 O.3   124  SER124     -0.2183
    192  N          9.1550    5.1420   50.3050 N.3   126  TYR126     -0.1241
    193  CA         7.8560    5.3170   49.6490 C.3   126  TYR126      0.1605
    194  C          6.7310    5.4120   50.6840 C.2   126  TYR126      0.2264
    195  O          6.7900    4.7620   51.7200 O.2   126  TYR126     -0.2867
    196  CB         7.5950    4.1580   48.6800 C.3   126  TYR126      0.0534
    197  CG         8.6630    4.0320   47.6180 C.ar  126  TYR126     -0.0201
    198  CD1        9.7620    3.1810   47.7860 C.ar  126  TYR126     -0.0009
    199  CD2        8.6030    4.8030   46.4630 C.ar  126  TYR126     -0.0009
    200  CE1       10.7750    3.0900   46.7890 C.ar  126  TYR126      0.0417
    201  CE2        9.5880    4.7150   45.4840 C.ar  126  TYR126      0.0417
    202  CZ        10.6690    3.8670   45.6500 C.ar  126  TYR126      0.1957
    203  OH        11.6300    3.8180   44.6530 O.3   126  TYR126     -0.2866
@<TRIPOS>BOND
     1   140   139    1
     2   140   141    2
     3   139   138    1
     4   139   142    1
     5   142   143    1
     6   143   144    1
     7   144   146   ar
     8   144   145   ar
     9    97    96    2
    10   106   105    2
    11    89    88    2
    12   137   135    1
    13   156   154   ar
    14   156   155   ar
    15   129   130    2
    16   129   128    1
    17   102   100   ar
    18   134   135    2
    19   134   133    1
    20   105   104    1
    21    96    95    1
    22   154   152   ar
    23   132   133    1
    24   132   131    1
    25   135   136    1
    26    94    95    1
    27   103   104    1
    28   111   109   am
    29   107   104    1
    30   107   108    1
    31    88    87    1
    32    99   100    1
    33    99    98    1
    34   155   153   ar
    35   128   131    1
    36   128   127    1
    37   109   110    2
    38   109   108    1
    39   100   101   ar
    40    86    87    1
    41    95    98    1
    42   112   113    1
    43    87    90    1
    44    40    37    1
    45    40    41    1
    46   147   148    1
    47   152   153   ar
    48   152   151    1
    49    90    91    1
    50    37    36    1
    51    37    38    1
    52    93    91    1
    53   113   114    1
    54   113   116    1
    55    91    92    1
    56    39    38    2
    57   114   115    2
    58   151   148    1
    59   148   149    1
    60    38    42   am
    61   119   117    1
    62    54    56    1
    63    54    53    1
    64    49    50    1
    65   116   117    1
    66   117   118    1
    67   150   149    2
    68    50    53    1
    69    50    51    1
    70   149   157   am
    71    42    43    1
    72    53    55    1
    73    62    61    1
    74    32    30   ar
    75    32    34   ar
    76    63    61    1
    77    35    34    1
    78    68    65    1
    79    68    69    1
    80    51    52    2
    81    24    25    1
    82    65    66    1
    83    65    64    1
    84    30    29   ar
    85    34    33   ar
    86   157   158    1
    87    43    44    1
    88    43    46    1
    89    61    58    1
    90    58    57    1
    91    58    59    1
    92    44    45    2
    93    25    26    1
    94    25    28    1
    95    66    67    2
    96   163   161    1
    97    77    76    1
    98    77    78    2
    99    29    28    1
   100    29    31   ar
   101    76    75    1
   102    76    79    1
   103    26    27    2
   104    69    71   ar
   105    69    70   ar
   106    48    46    1
   107    59    60    2
   108    33    31   ar
   109   158   161    1
   110   158   159    1
   111   122   123    2
   112   122   121    1
   113    82    84   ar
   114    82    80   ar
   115    46    47    1
   116   125   124    1
   117    84    85   ar
   118   161   162    1
   119    71    73   ar
   120    70    72   ar
   121    79    80    1
   122   159   160    2
   123   159   164   am
   124   121   124    1
   125   121   120    1
   126    80    81   ar
   127   124   126    1
   128    85    83   ar
   129    73    74   ar
   130    72    74   ar
   131     7     9   ar
   132     7     6   ar
   133   164   165    1
   134     9    11   ar
   135    81    83   ar
   136   203   202    1
   137     5     6    1
   138     5     2    1
   139     6     8   ar
   140   168   165    1
   141    11    12    1
   142    11    10   ar
   143   185   184    1
   144   165   166    1
   145   201   202   ar
   146   201   199   ar
   147    21    23   ar
   148    21    19   ar
   149    23    22   ar
   150   202   200   ar
   151     1     2    1
   152   184   181    1
   153    19    18   ar
   154   167   166    2
   155     8    10   ar
   156     2     3    1
   157    22    20   ar
   158   179   177   ar
   159   179   178   ar
   160   177   175   ar
   161    18    20   ar
   162    18    17    1
   163   199   197   ar
   164   191   190    1
   165   178   176   ar
   166    17    14    1
   167     4     3    2
   168   175   174   ar
   169   181   182    1
   170   181   180    1
   171   200   198   ar
   172   176   174   ar
   173   174   173    1
   174   190   187    1
   175   182   183    2
   176   173   170    1
   177   197   198   ar
   178   197   196    1
   179    14    15    1
   180    14    13    1
   181    16    15    2
   182   187   186    1
   183   187   188    1
   184   196   193    1
   185   170   171    1
   186   170   169    1
   187   171   172    2
   188   188   189    2
   189   193   192    1
   190   193   194    1
   191   194   195    2
