@<TRIPOS>MOLECULE
tmp/3apxA00.pdb
 203 192 0 0 0
SMALL
GASTEIGER

@<TRIPOS>ATOM
      1  N        -11.8360  -17.3270   15.7350 N.3    28  TYR28      -0.1241
      2  CA       -12.0720  -16.2090   16.6450 C.3    28  TYR28       0.1605
      3  C        -13.3770  -16.4500   17.4100 C.2    28  TYR28       0.2264
      4  O        -14.4370  -16.6640   16.8030 O.2    28  TYR28      -0.2867
      5  CB       -12.0570  -14.8680   15.8820 C.3    28  TYR28       0.0534
      6  CG       -12.7780  -13.7380   16.5790 C.ar   28  TYR28      -0.0201
      7  CD1      -13.7780  -13.0230   15.9230 C.ar   28  TYR28      -0.0009
      8  CD2      -12.4750  -13.3970   17.8990 C.ar   28  TYR28      -0.0009
      9  CE1      -14.4590  -11.9970   16.5570 C.ar   28  TYR28       0.0417
     10  CE2      -13.1520  -12.3780   18.5430 C.ar   28  TYR28       0.0417
     11  CZ       -14.1430  -11.6830   17.8650 C.ar   28  TYR28       0.1957
     12  OH       -14.8160  -10.6750   18.4970 O.3    28  TYR28      -0.2866
     13  N        -13.1800   -4.9390   24.8580 N.3    33  PHE33      -0.1241
     14  CA       -12.2720   -3.7960   24.8240 C.3    33  PHE33       0.1605
     15  C        -12.8980   -2.6060   25.5340 C.2    33  PHE33       0.2264
     16  O        -14.1220   -2.4220   25.5170 O.2    33  PHE33      -0.2867
     17  CB       -11.9990   -3.3430   23.3810 C.3    33  PHE33       0.0534
     18  CG       -11.4700   -4.4150   22.4750 C.ar   33  PHE33      -0.0203
     19  CD1      -12.3360   -5.1520   21.6700 C.ar   33  PHE33      -0.0042
     20  CD2      -10.1030   -4.6610   22.3900 C.ar   33  PHE33      -0.0042
     21  CE1      -11.8540   -6.1420   20.8170 C.ar   33  PHE33      -0.0003
     22  CE2       -9.6130   -5.6380   21.5420 C.ar   33  PHE33      -0.0003
     23  CZ       -10.4930   -6.3780   20.7500 C.ar   33  PHE33      -0.0000
     24  N        -13.0800   -0.1260   18.7070 N.3    38  TYR38      -0.1241
     25  CA       -13.0880   -1.5820   18.5630 C.3    38  TYR38       0.1605
     26  C        -14.3950   -2.2110   19.0370 C.2    38  TYR38       0.2264
     27  O        -14.8020   -3.2460   18.5220 O.2    38  TYR38      -0.2867
     28  CB       -11.8840   -2.2200   19.2590 C.3    38  TYR38       0.0534
     29  CG       -10.5940   -2.1580   18.4580 C.ar   38  TYR38      -0.0201
     30  CD1      -10.6110   -2.0110   17.0660 C.ar   38  TYR38      -0.0009
     31  CD2       -9.3550   -2.2810   19.0900 C.ar   38  TYR38      -0.0009
     32  CE1       -9.4230   -1.9640   16.3280 C.ar   38  TYR38       0.0417
     33  CE2       -8.1650   -2.2410   18.3620 C.ar   38  TYR38       0.0417
     34  CZ        -8.2040   -2.0810   16.9840 C.ar   38  TYR38       0.1957
     35  OH        -7.0250   -2.0460   16.2660 O.3    38  TYR38      -0.2866
     36  N        -15.8290   -4.4230   16.0770 N.3    42  VAL42      -0.1245
     37  CA       -15.7320   -5.8700   16.2990 C.3    42  VAL42       0.1561
     38  C        -17.1410   -6.4580   16.4400 C.2    42  VAL42       0.2260
     39  O        -17.3790   -7.6260   16.1260 O.2    42  VAL42      -0.2867
     40  CB       -14.8350   -6.2270   17.5270 C.3    42  VAL42       0.0252
     41  CG1      -14.8140   -7.7190   17.7710 C.3    42  VAL42       0.0019
     42  CG2      -13.4050   -5.7370   17.3220 C.3    42  VAL42       0.0019
     43  N        -18.4610   -8.3620   13.4660 N.3    45  ILE45      -0.1245
     44  CA       -17.8590   -9.6310   13.0510 C.3    45  ILE45       0.1561
     45  C        -18.7080  -10.8080   13.5480 C.2    45  ILE45       0.2260
     46  O        -18.8820  -11.0000   14.7590 O.2    45  ILE45      -0.2867
     47  CB       -16.3780   -9.7490   13.5010 C.3    45  ILE45       0.0252
     48  CG1      -15.5660   -8.5690   12.9480 C.3    45  ILE45       0.0019
     49  CG2      -15.7760  -11.0940   13.0560 C.3    45  ILE45       0.0019
     50  CD1      -14.1490   -8.4580   13.4970 C.3    45  ILE45       0.0001
     51  N        -14.8360  -15.5270   12.2240 N.3    48  THR48      -0.1218
     52  CA       -13.5230  -15.4440   11.5610 C.3    48  THR48       0.1862
     53  C        -12.7110  -16.6820   11.8910 C.2    48  THR48       0.2287
     54  O        -12.6600  -17.1180   13.0470 O.2    48  THR48      -0.2866
     55  CB       -12.7000  -14.1730   11.9550 C.3    48  THR48       0.1770
     56  OG1      -13.3810  -13.0040   11.5100 O.3    48  THR48      -0.2211
     57  CG2      -11.3300  -14.1700   11.3000 C.3    48  THR48       0.0375
     58  N         -8.6690  -18.2220   10.6880 N.3    50  PHE50      -0.1241
     59  CA        -7.4520  -17.8270    9.9790 C.3    50  PHE50       0.1605
     60  C         -6.3370  -18.8410   10.1140 C.2    50  PHE50       0.2264
     61  O         -6.3560  -19.6790   11.0110 O.2    50  PHE50      -0.2867
     62  CB        -6.9680  -16.4470   10.4440 C.3    50  PHE50       0.0534
     63  CG        -6.5420  -16.3920   11.8950 C.ar   50  PHE50      -0.0203
     64  CD1       -7.4370  -15.9950   12.8820 C.ar   50  PHE50      -0.0042
     65  CD2       -5.2350  -16.7080   12.2710 C.ar   50  PHE50      -0.0042
     66  CE1       -7.0430  -15.9270   14.2160 C.ar   50  PHE50      -0.0003
     67  CE2       -4.8360  -16.6400   13.6060 C.ar   50  PHE50      -0.0003
     68  CZ        -5.7350  -16.2490   14.5770 C.ar   50  PHE50      -0.0000
     69  N         -2.1270  -19.3700   10.4470 N.3    52  PHE52      -0.1241
     70  CA        -0.7960  -18.8290   10.7470 C.3    52  PHE52       0.1605
     71  C          0.2990  -19.7440   10.1890 C.2    52  PHE52       0.2264
     72  O          0.3810  -20.9160   10.5730 O.2    52  PHE52      -0.2867
     73  CB        -0.5940  -18.7110   12.2630 C.3    52  PHE52       0.0534
     74  CG        -1.0780  -17.4110   12.8680 C.ar   52  PHE52      -0.0203
     75  CD1       -1.1710  -17.2830   14.2560 C.ar   52  PHE52      -0.0042
     76  CD2       -1.4320  -16.3210   12.0680 C.ar   52  PHE52      -0.0042
     77  CE1       -1.5970  -16.0770   14.8440 C.ar   52  PHE52      -0.0003
     78  CE2       -1.8540  -15.1240   12.6420 C.ar   52  PHE52      -0.0003
     79  CZ        -1.9400  -15.0030   14.0380 C.ar   52  PHE52      -0.0000
     80  N         -0.3550  -14.7520    7.2900 N.3    63  LEU63      -0.1245
     81  CA        -1.7400  -14.8470    7.7190 C.3    63  LEU63       0.1561
     82  C         -2.6550  -15.0110    6.5070 C.2    63  LEU63       0.2260
     83  O         -2.5140  -14.2990    5.5210 O.2    63  LEU63      -0.2867
     84  CB        -2.1410  -13.5910    8.5150 C.3    63  LEU63       0.0270
     85  CG        -3.6290  -13.4030    8.8450 C.3    63  LEU63       0.0019
     86  CD1       -4.0530  -14.3420    9.9390 C.3    63  LEU63       0.0001
     87  CD2       -3.9370  -11.9650    9.2390 C.3    63  LEU63       0.0001
     88  N         -6.6300  -14.8570    6.4060 N.3    65  GLU65      -0.1245
     89  CA        -7.8160  -14.5800    7.2210 C.3    65  GLU65       0.1567
     90  C         -9.1240  -14.6970    6.4290 C.2    65  GLU65       0.2260
     91  O         -9.2180  -14.2320    5.2960 O.2    65  GLU65      -0.2867
     92  CB        -7.7070  -13.1810    7.8520 C.3    65  GLU65       0.0388
     93  CG        -8.7290  -12.9120    8.9700 C.3    65  GLU65       0.1160
     94  CD        -8.6280  -11.5070    9.5610 C.2    65  GLU65       0.3649
     95  OE1       -7.5190  -10.9290    9.5850 O.co2  65  GLU65      -0.2457
     96  OE2       -9.6690  -10.9780   10.0100 O.co2  65  GLU65      -0.2457
     97  N        -12.8140  -13.6670    7.1610 N.3    67  GLN67      -0.1245
     98  CA       -13.6950  -12.9400    8.0550 C.3    67  GLN67       0.1566
     99  C        -15.1330  -12.8670    7.5350 C.2    67  GLN67       0.2260
    100  O        -15.3640  -12.5180    6.3670 O.2    67  GLN67      -0.2867
    101  CB       -13.1270  -11.5370    8.2780 C.3    67  GLN67       0.0367
    102  CG       -13.9310  -10.6630    9.2070 C.3    67  GLN67       0.0905
    103  CD       -13.0750   -9.6030    9.8490 C.2    67  GLN67       0.2608
    104  OE1      -13.0370   -8.4660    9.3850 O.2    67  GLN67      -0.2717
    105  NE2      -12.3530   -9.9770   10.9120 N.am   67  GLN67      -0.0878
    106  N          2.6270  -10.7630    8.7600 N.3    80  LEU80      -0.1245
    107  CA         2.7670  -10.1080   10.0460 C.3    80  LEU80       0.1561
    108  C          4.2380  -10.0870   10.4130 C.2    80  LEU80       0.2260
    109  O          5.0060  -10.9690   10.0080 O.2    80  LEU80      -0.2867
    110  CB         1.9660  -10.8390   11.1300 C.3    80  LEU80       0.0270
    111  CG         0.5500  -11.2970   10.7710 C.3    80  LEU80       0.0019
    112  CD1       -0.1440  -11.8250   12.0090 C.3    80  LEU80       0.0001
    113  CD2       -0.2740  -10.1900   10.1280 C.3    80  LEU80       0.0001
    114  N          3.1130   -9.0190   18.0230 N.3    89  VAL89      -0.1231
    115  CA         2.8910   -9.2390   16.6110 C.3    89  VAL89       0.1692
    116  C          2.2830   -7.9530   16.0310 C.2    89  VAL89       0.2593
    117  O          1.5360   -7.2480   16.7170 O.2    89  VAL89      -0.2718
    118  CB         1.9230  -10.4330   16.4230 C.3    89  VAL89       0.0266
    119  CG1        1.3600  -10.4690   15.0300 C.3    89  VAL89       0.0020
    120  CG2        2.6280  -11.7500   16.7590 C.3    89  VAL89       0.0020
    121  N          2.6130   -7.6450   14.7770 N.am   90  SER90      -0.1938
    122  CA         2.0890   -6.4480   14.1150 C.3    90  SER90       0.2055
    123  C          1.6590   -6.6950   12.6660 C.2    90  SER90       0.2642
    124  O          2.2290   -7.5280   11.9750 O.2    90  SER90      -0.2714
    125  CB         3.1050   -5.3050   14.1820 C.3    90  SER90       0.2130
    126  OG         4.2860   -5.6340   13.4740 O.3    90  SER90      -0.2179
    127  N          0.6450   -5.9580   12.2230 N.am   91  ARG91      -0.1977
    128  CA         0.1380   -6.0390   10.8520 C.3    91  ARG91       0.1597
    129  C         -0.3890   -4.6870   10.3990 C.2    91  ARG91       0.2287
    130  O         -0.6980   -3.8210   11.2180 O.2    91  ARG91      -0.2864
    131  CB        -1.0000   -7.0540   10.7480 C.3    91  ARG91       0.0334
    132  CG        -2.0760   -6.8650   11.7920 C.3    91  ARG91       0.0492
    133  CD        -3.4770   -6.9430   11.2210 C.3    91  ARG91       0.2205
    134  NE        -4.0520   -8.2850   11.2140 N.pl3  91  ARG91      -0.0865
    135  CZ        -5.3220   -8.5550   11.5130 C.cat  91  ARG91       0.5346
    136  NH1       -6.1570   -7.5850   11.8780 N.pl3  91  ARG91       0.1354
    137  NH2       -5.7610   -9.8040   11.4640 N.pl3  91  ARG91       0.1354
    138  N         -3.4060   -2.7090    9.0440 N.3    93  GLU93      -0.1245
    139  CA        -4.8420   -2.5850    8.8180 C.3    93  GLU93       0.1567
    140  C         -5.0470   -1.1250    8.4580 C.2    93  GLU93       0.2260
    141  O         -4.4220   -0.2430    9.0620 O.2    93  GLU93      -0.2867
    142  CB        -5.6480   -2.8980   10.0850 C.3    93  GLU93       0.0388
    143  CG        -5.3640   -4.2490   10.7690 C.3    93  GLU93       0.1160
    144  CD        -5.6070   -4.2180   12.2890 C.2    93  GLU93       0.3649
    145  OE1       -6.0280   -3.1600   12.8090 O.co2  93  GLU93      -0.2457
    146  OE2       -5.3730   -5.2410   12.9730 O.co2  93  GLU93      -0.2457
    147  N         -0.5800   -1.9010   13.2130 N.3    98  HIS98      -0.1226
    148  CA        -1.2230   -2.1240   14.5120 C.3    98  HIS98       0.1752
    149  C         -0.4970   -3.2490   15.2420 C.2    98  HIS98       0.2596
    150  O         -0.1190   -4.2400   14.6190 O.2    98  HIS98      -0.2718
    151  CB        -2.6920   -2.5180   14.3230 C.3    98  HIS98       0.0759
    152  CG        -3.5440   -1.4350   13.7370 C.ar   98  HIS98       0.0818
    153  ND1       -4.5130   -0.7750   14.4630 N.ar   98  HIS98      -0.2268
    154  CD2       -3.5820   -0.9050   12.4910 C.ar   98  HIS98       0.1154
    155  CE1       -5.1030    0.1220   13.6920 C.ar   98  HIS98       0.1986
    156  NE2       -4.5580    0.0610   12.4900 N.ar   98  HIS98      -0.2212
    157  N         -0.3170   -3.0940   16.5530 N.am   99  VAL99      -0.1966
    158  CA         0.3840   -4.0880   17.3760 C.3    99  VAL99       0.1727
    159  C         -0.5640   -4.8300   18.3370 C.2    99  VAL99       0.2616
    160  O         -1.5170   -4.2510   18.8670 O.2    99  VAL99      -0.2715
    161  CB         1.5450   -3.4470   18.1740 C.3    99  VAL99       0.0290
    162  CG1        2.4480   -4.5120   18.7620 C.3    99  VAL99       0.0023
    163  CG2        2.3740   -2.5280   17.2780 C.3    99  VAL99       0.0023
    164  N         -0.2930   -6.1170   18.5340 N.am  100  ALA100     -0.1977
    165  CA        -0.9900   -6.9380   19.5260 C.3   100  ALA100      0.1597
    166  C         -0.0050   -7.8090   20.3080 C.2   100  ALA100      0.2287
    167  O          0.8950   -8.4140   19.7210 O.2   100  ALA100     -0.2864
    168  CB        -2.0400   -7.8160   18.8550 C.3   100  ALA100      0.0319
    169  N         -4.9980  -12.3710   21.8140 N.3   113  PHE113     -0.1241
    170  CA        -4.2840  -11.1650   21.4230 C.3   113  PHE113      0.1605
    171  C         -4.7030  -10.0220   22.3350 C.2   113  PHE113      0.2264
    172  O         -5.8980   -9.7850   22.5600 O.2   113  PHE113     -0.2867
    173  CB        -4.5400  -10.7950   19.9620 C.3   113  PHE113      0.0534
    174  CG        -3.9750  -11.7790   18.9820 C.ar  113  PHE113     -0.0203
    175  CD1       -2.6410  -12.1700   19.0560 C.ar  113  PHE113     -0.0042
    176  CD2       -4.7710  -12.3040   17.9730 C.ar  113  PHE113     -0.0042
    177  CE1       -2.1190  -13.0810   18.1480 C.ar  113  PHE113     -0.0003
    178  CE2       -4.2530  -13.2200   17.0600 C.ar  113  PHE113     -0.0003
    179  CZ        -2.9310  -13.6100   17.1540 C.ar  113  PHE113     -0.0000
    180  N         -4.7980   -6.0280   23.1070 N.3   115  SER115     -0.1217
    181  CA        -4.7570   -4.7250   22.4540 C.3   115  SER115      0.1889
    182  C         -4.6690   -3.6110   23.4860 C.2   115  SER115      0.2288
    183  O         -5.3960   -3.6240   24.4870 O.2   115  SER115     -0.2866
    184  CB        -6.0050   -4.5200   21.5890 C.3   115  SER115      0.2089
    185  OG        -6.1320   -5.5560   20.6310 O.3   115  SER115     -0.2183
    186  N         -8.7810  -10.3980   22.7130 N.3   126  SER126     -0.1217
    187  CA        -9.4980  -11.2490   21.7860 C.3   126  SER126      0.1889
    188  C         -9.0860  -12.7060   22.0270 C.2   126  SER126      0.2288
    189  O         -7.9260  -12.9880   22.3110 O.2   126  SER126     -0.2866
    190  CB        -9.2500  -10.8030   20.3510 C.3   126  SER126      0.2089
    191  OG        -9.5970   -9.4350   20.1960 O.3   126  SER126     -0.2183
    192  N         -9.1660  -16.8410   20.9790 N.3   128  TYR128     -0.1241
    193  CA        -9.1280  -17.7260   19.8090 C.3   128  TYR128      0.1605
    194  C         -8.9170  -19.1870   20.2140 C.2   128  TYR128      0.2264
    195  O         -8.2780  -19.4600   21.2250 O.2   128  TYR128     -0.2867
    196  CB        -8.0020  -17.2930   18.8690 C.3   128  TYR128      0.0534
    197  CG        -8.0860  -15.8460   18.4470 C.ar  128  TYR128     -0.0201
    198  CD1       -7.5620  -14.8260   19.2510 C.ar  128  TYR128     -0.0009
    199  CD2       -8.7050  -15.4900   17.2550 C.ar  128  TYR128     -0.0009
    200  CE1       -7.6470  -13.4920   18.8610 C.ar  128  TYR128      0.0417
    201  CE2       -8.7940  -14.1650   16.8620 C.ar  128  TYR128      0.0417
    202  CZ        -8.2630  -13.1740   17.6590 C.ar  128  TYR128      0.1957
    203  OH        -8.3580  -11.8650   17.2500 O.3   128  TYR128     -0.2866
@<TRIPOS>BOND
     1    91    90    2
     2    83    82    2
     3   100    99    2
     4    88    89    1
     5    90    89    1
     6    82    81    1
     7    97    98    1
     8    89    92    1
     9    80    81    1
    10    99    98    1
    11    81    84    1
    12    92    93    1
    13    98   101    1
    14   101   102    1
    15   140   139    1
    16   140   141    2
    17    84    85    1
    18   106   107    1
    19   139   138    1
    20   139   142    1
    21    85    87    1
    22    85    86    1
    23    93    94    1
    24   102   103    1
    25   104   103    2
    26    94    95   ar
    27    94    96   ar
    28   103   105   am
    29    59    60    1
    30    59    62    1
    31    59    58    1
    32   109   108    2
    33   107   108    1
    34   107   110    1
    35   142   143    1
    36    60    61    2
    37   113   111    1
    38    71    72    2
    39    71    70    1
    40   129   128    1
    41   129   130    2
    42    62    63    1
    43    69    70    1
    44    70    73    1
    45   131   128    1
    46   131   132    1
    47   143   144    1
    48   111   110    1
    49   111   112    1
    50   128   127    1
    51   134   133    1
    52   134   135    2
    53   133   132    1
    54    57    55    1
    55   137   135    1
    56    56    55    1
    57   135   136    1
    58    52    53    1
    59    52    55    1
    60    52    51    1
    61    53    54    2
    62    63    65   ar
    63    63    64   ar
    64   124   123    2
    65    76    78   ar
    66    76    74   ar
    67   127   123   am
    68    73    74    1
    69    65    67   ar
    70   144   145   ar
    71   144   146   ar
    72   156   154   ar
    73   156   155   ar
    74   154   152   ar
    75    78    79   ar
    76   123   122    1
    77    74    75   ar
    78    64    66   ar
    79    48    50    1
    80    48    47    1
    81    44    43    1
    82    44    47    1
    83    44    45    1
    84    49    47    1
    85   147   148    1
    86   126   125    1
    87    45    46    2
    88    67    68   ar
    89   155   153   ar
    90   152   151    1
    91   152   153   ar
    92    79    77   ar
    93   122   125    1
    94   122   121    1
    95    66    68   ar
    96    75    77   ar
    97   151   148    1
    98   148   149    1
    99   150   149    2
   100   121   116   am
   101   119   118    1
   102   149   157   am
   103     1     2    1
   104     5     6    1
   105     5     2    1
   106     7     9   ar
   107     7     6   ar
   108   116   115    1
   109   116   117    2
   110    36    37    1
   111    39    38    2
   112    35    34    1
   113    37    38    1
   114    37    40    1
   115    32    34   ar
   116    32    30   ar
   117   118   115    1
   118   118   120    1
   119   157   158    1
   120     9    11   ar
   121     6     8   ar
   122   115   114    1
   123     2     3    1
   124     4     3    2
   125   201   199   ar
   126   201   202   ar
   127    34    33   ar
   128   178   179   ar
   129   178   176   ar
   130    30    29   ar
   131   179   177   ar
   132   203   202    1
   133   199   197   ar
   134   163   161    1
   135    42    40    1
   136   158   161    1
   137   158   159    1
   138    40    41    1
   139   202   200   ar
   140    11    12    1
   141    11    10   ar
   142     8    10   ar
   143   176   174   ar
   144   177   175   ar
   145   161   162    1
   146   159   164   am
   147   159   160    2
   148    33    31   ar
   149   197   196    1
   150   197   198   ar
   151    29    31   ar
   152    29    28    1
   153    27    26    2
   154   164   165    1
   155    25    24    1
   156    25    26    1
   157    25    28    1
   158   168   165    1
   159   200   198   ar
   160   196   193    1
   161   174   175   ar
   162   174   173    1
   163   165   166    1
   164   167   166    2
   165   193   194    1
   166   193   192    1
   167   173   170    1
   168   191   190    1
   169   194   195    2
   170   190   187    1
   171   185   184    1
   172    23    21   ar
   173    23    22   ar
   174    21    19   ar
   175   170   169    1
   176   170   171    1
   177    22    20   ar
   178   184   181    1
   179    19    18   ar
   180   187   188    1
   181   187   186    1
   182   188   189    2
   183   171   172    2
   184    20    18   ar
   185   181   180    1
   186   181   182    1
   187    18    17    1
   188    17    14    1
   189   182   183    2
   190    14    13    1
   191    14    15    1
   192    16    15    2
