@<TRIPOS>MOLECULE
tmp/3aq0H01.pdb
 139 130 0 0 0
SMALL
GASTEIGER

@<TRIPOS>ATOM
      1  N        -84.6180  -44.1610    3.4120 N.3    43  GLY43      -0.1210
      2  CA       -83.4750  -44.0840    2.4980 C.3    43  GLY43       0.1956
      3  C        -82.6790  -45.3790    2.4370 C.2    43  GLY43       0.2611
      4  O        -82.9750  -46.3340    3.1530 O.2    43  GLY43      -0.2717
      5  N        -81.6880  -45.4250    1.5550 N.am   44  LYS44      -0.1979
      6  CA       -80.6570  -46.4620    1.5980 C.3    44  LYS44       0.1596
      7  C        -79.8740  -46.1220    2.8540 C.2    44  LYS44       0.2287
      8  O        -79.4580  -44.9660    3.0280 O.2    44  LYS44      -0.2864
      9  CB       -79.7380  -46.3630    0.3700 C.3    44  LYS44       0.0298
     10  CG       -80.4220  -45.8690   -0.9120 C.3    44  LYS44       0.0038
     11  CD       -79.4310  -45.3000   -1.9210 C.3    44  LYS44       0.0206
     12  CE       -78.7860  -43.9850   -1.4670 C.3    44  LYS44       0.1093
     13  NZ       -79.7260  -42.8280   -1.5370 N.3    44  LYS44      -0.1314
     14  N        -76.7980  -46.3160    4.2420 N.3    46  PHE46      -0.1227
     15  CA       -75.3920  -46.6550    3.9940 C.3    46  PHE46       0.1736
     16  C        -74.4840  -46.3430    5.1610 C.2    46  PHE46       0.2595
     17  O        -73.5510  -47.0960    5.4370 O.2    46  PHE46      -0.2718
     18  CB       -74.8440  -45.9740    2.7230 C.3    46  PHE46       0.0547
     19  CG       -75.3750  -46.5510    1.4220 C.ar   46  PHE46      -0.0202
     20  CD1      -75.7910  -47.8830    1.3340 C.ar   46  PHE46      -0.0042
     21  CD2      -75.4410  -45.7550    0.2800 C.ar   46  PHE46      -0.0042
     22  CE1      -76.2830  -48.3960    0.1360 C.ar   46  PHE46      -0.0003
     23  CE2      -75.9330  -46.2540   -0.9160 C.ar   46  PHE46      -0.0003
     24  CZ       -76.3490  -47.5840   -0.9910 C.ar   46  PHE46      -0.0000
     25  N        -74.7500  -45.2260    5.8350 N.am   47  ARG47      -0.1980
     26  CA       -73.9690  -44.8490    7.0040 C.3    47  ARG47       0.1597
     27  C        -74.1230  -45.9160    8.0860 C.2    47  ARG47       0.2287
     28  O        -73.1240  -46.4130    8.6090 O.2    47  ARG47      -0.2864
     29  CB       -74.3470  -43.4550    7.4970 C.3    47  ARG47       0.0334
     30  CG       -73.7380  -42.3090    6.6740 C.3    47  ARG47       0.0492
     31  CD       -74.5180  -41.0180    6.8720 C.3    47  ARG47       0.2205
     32  NE       -74.4250  -40.1280    5.7200 N.pl3  47  ARG47      -0.0865
     33  CZ       -75.2180  -40.1760    4.6490 C.cat  47  ARG47       0.5346
     34  NH1      -76.1910  -41.0730    4.5560 N.pl3  47  ARG47       0.1354
     35  NH2      -75.0450  -39.3190    3.6560 N.pl3  47  ARG47       0.1354
     36  N        -72.2900  -49.2200    7.1130 N.3    50  ILE50      -0.1245
     37  CA       -70.8580  -49.0930    7.3870 C.3    50  ILE50       0.1561
     38  C        -70.5370  -49.1760    8.8810 C.2    50  ILE50       0.2260
     39  O        -69.5570  -49.8000    9.2850 O.2    50  ILE50      -0.2867
     40  CB       -70.3110  -47.7950    6.7600 C.3    50  ILE50       0.0252
     41  CG1      -70.0500  -48.0380    5.2700 C.3    50  ILE50       0.0019
     42  CG2      -69.0360  -47.3170    7.4590 C.3    50  ILE50       0.0019
     43  CD1      -70.2700  -46.8070    4.3950 C.3    50  ILE50       0.0001
     44  N        -77.7320  -41.3990   12.0330 N.3    74  GLU74      -0.1245
     45  CA       -78.8780  -41.3290   11.1300 C.3    74  GLU74       0.1567
     46  C        -79.7850  -40.1410   11.4740 C.2    74  GLU74       0.2260
     47  O        -80.2420  -39.4290   10.5690 O.2    74  GLU74      -0.2867
     48  CB       -79.6540  -42.6400   11.1140 C.3    74  GLU74       0.0388
     49  CG       -79.9970  -43.1300    9.7130 C.3    74  GLU74       0.1160
     50  CD       -78.7550  -43.4290    8.8350 C.2    74  GLU74       0.3649
     51  OE1      -77.6910  -43.8220    9.3850 O.co2  74  GLU74      -0.2457
     52  OE2      -78.8480  -43.2770    7.5900 O.co2  74  GLU74      -0.2457
     53  N        -78.0150  -37.1440   10.3320 N.3    77  HIS77      -0.1241
     54  CA       -78.1870  -37.1860    8.8750 C.3    77  HIS77       0.1621
     55  C        -79.5260  -36.6160    8.4140 C.2    77  HIS77       0.2264
     56  O        -79.5410  -35.6650    7.6230 O.2    77  HIS77      -0.2867
     57  CB       -77.9790  -38.6010    8.3170 C.3    77  HIS77       0.0745
     58  CG       -78.2040  -38.7090    6.8390 C.ar   77  HIS77       0.0817
     59  ND1      -77.5940  -37.8720    5.9230 N.ar   77  HIS77      -0.2268
     60  CD2      -78.9790  -39.5530    6.1180 C.ar   77  HIS77       0.1154
     61  CE1      -77.9900  -38.1960    4.7050 C.ar   77  HIS77       0.1986
     62  NE2      -78.8300  -39.2140    4.7960 N.ar   77  HIS77      -0.2212
     63  N        -80.9290  -33.1510    6.0730 N.3    81  LEU81      -0.1245
     64  CA       -81.8440  -33.2280    4.9290 C.3    81  LEU81       0.1561
     65  C        -83.0500  -32.3170    5.0700 C.2    81  LEU81       0.2260
     66  O        -83.4020  -31.5940    4.1470 O.2    81  LEU81      -0.2867
     67  CB       -82.2870  -34.6700    4.7230 C.3    81  LEU81       0.0270
     68  CG       -81.0890  -35.5970    4.5230 C.3    81  LEU81       0.0019
     69  CD1      -81.5370  -37.0050    4.1720 C.3    81  LEU81       0.0001
     70  CD2      -80.1480  -35.0330    3.4420 C.3    81  LEU81       0.0001
     71  N        -88.1900  -35.6260   -1.9710 N.3    93  ARG93      -0.1231
     72  CA       -87.1290  -36.3630   -1.3050 C.3    93  ARG93       0.1694
     73  C        -87.5300  -37.8130   -1.1670 C.2    93  ARG93       0.2591
     74  O        -88.6750  -38.1070   -0.8420 O.2    93  ARG93      -0.2718
     75  CB       -86.8320  -35.7750    0.0760 C.3    93  ARG93       0.0321
     76  CG       -85.6500  -36.4270    0.7790 C.3    93  ARG93       0.0489
     77  CD       -84.7360  -35.3780    1.3850 C.3    93  ARG93       0.2205
     78  NE       -83.3700  -35.6040    0.9410 N.pl3  93  ARG93      -0.0865
     79  CZ       -82.4840  -34.6490    0.7070 C.cat  93  ARG93       0.5346
     80  NH1      -82.7870  -33.3690    0.8760 N.pl3  93  ARG93       0.1354
     81  NH2      -81.2810  -34.9860    0.2930 N.pl3  93  ARG93       0.1354
     82  N        -86.5790  -38.7120   -1.4160 N.am   94  ARG94      -0.1980
     83  CA       -86.7880  -40.1550   -1.2500 C.3    94  ARG94       0.1597
     84  C        -88.0480  -40.6690   -1.9570 C.2    94  ARG94       0.2287
     85  O        -88.8340  -41.4330   -1.3800 O.2    94  ARG94      -0.2864
     86  CB       -86.8050  -40.5240    0.2370 C.3    94  ARG94       0.0334
     87  CG       -85.4430  -40.4310    0.8790 C.3    94  ARG94       0.0492
     88  CD       -85.5000  -40.6100    2.3780 C.3    94  ARG94       0.2205
     89  NE       -84.1510  -40.7580    2.9250 N.pl3  94  ARG94      -0.0865
     90  CZ       -83.8410  -40.7450    4.2200 C.cat  94  ARG94       0.5346
     91  NH1      -84.7860  -40.5890    5.1480 N.pl3  94  ARG94       0.1354
     92  NH2      -82.5720  -40.8980    4.5900 N.pl3  94  ARG94       0.1354
     93  N        -69.9200  -34.2420    3.6300 N.3   171  THR171     -0.1218
     94  CA       -70.2530  -35.6390    3.3760 C.3   171  THR171      0.1862
     95  C        -69.4210  -36.6040    4.2160 C.2   171  THR171      0.2287
     96  O        -69.9720  -37.4680    4.8730 O.2   171  THR171     -0.2866
     97  CB       -70.0590  -36.0020    1.8660 C.3   171  THR171      0.1770
     98  OG1      -70.7780  -35.0810    1.0380 O.3   171  THR171     -0.2211
     99  CG2      -70.5290  -37.4260    1.5660 C.3   171  THR171      0.0375
    100  N        -69.2700  -39.6020    8.3630 N.3   175  ILE175     -0.1245
    101  CA       -68.8730  -41.0050    8.2380 C.3   175  ILE175      0.1561
    102  C        -67.5830  -41.3000    9.0030 C.2   175  ILE175      0.2260
    103  O        -67.5000  -42.2870    9.7190 O.2   175  ILE175     -0.2867
    104  CB       -68.7360  -41.4180    6.7430 C.3   175  ILE175      0.0252
    105  CG1      -70.0950  -41.3160    6.0710 C.3   175  ILE175      0.0019
    106  CG2      -68.2550  -42.8580    6.6030 C.3   175  ILE175      0.0019
    107  CD1      -70.0990  -40.4150    4.8980 C.3   175  ILE175      0.0001
    108  N        -66.1140  -42.3600    2.1270 N.3   204  GLY204     -0.1225
    109  CA       -67.0420  -41.2460    1.8990 C.3   204  GLY204      0.1811
    110  C        -66.6410  -40.3430    0.7340 C.2   204  GLY204      0.2280
    111  O        -67.4710  -40.0030   -0.1190 O.2   204  GLY204     -0.2866
    112  N        -67.1180  -42.2450   -2.4630 N.3   207  PHE207     -0.1227
    113  CA       -68.5210  -42.4510   -2.8150 C.3   207  PHE207      0.1736
    114  C        -69.0680  -41.2500   -3.5500 C.2   207  PHE207      0.2595
    115  O        -69.8200  -41.3930   -4.5180 O.2   207  PHE207     -0.2718
    116  CB       -69.4020  -42.7360   -1.5880 C.3   207  PHE207      0.0547
    117  CG       -70.8480  -42.9840   -1.9390 C.ar  207  PHE207     -0.0202
    118  CD1      -71.3050  -44.2760   -2.1870 C.ar  207  PHE207     -0.0042
    119  CD2      -71.7430  -41.9220   -2.0610 C.ar  207  PHE207     -0.0042
    120  CE1      -72.6380  -44.5130   -2.5340 C.ar  207  PHE207     -0.0003
    121  CE2      -73.0710  -42.1430   -2.4180 C.ar  207  PHE207     -0.0003
    122  CZ       -73.5210  -43.4450   -2.6530 C.ar  207  PHE207     -0.0000
    123  N        -68.6890  -40.0720   -3.0710 N.am  208  GLN208     -0.1979
    124  CA       -69.1500  -38.8070   -3.6280 C.3   208  GLN208      0.1601
    125  C        -68.5640  -38.5480   -5.0300 C.2   208  GLN208      0.2287
    126  O        -69.2590  -38.0390   -5.9200 O.2   208  GLN208     -0.2864
    127  CB       -68.8300  -37.6490   -2.6720 C.3   208  GLN208      0.0394
    128  CG       -69.5080  -36.3410   -3.0370 C.3   208  GLN208      0.0908
    129  CD       -71.0230  -36.4600   -3.1050 C.2   208  GLN208      0.2608
    130  OE1      -71.6780  -36.8760   -2.1420 O.2   208  GLN208     -0.2717
    131  NE2      -71.5900  -36.1030   -4.2570 N.am  208  GLN208     -0.0878
    132  N        -70.4600  -40.6800   -7.3990 N.3   211  ASP211     -0.1239
    133  CA       -71.8230  -40.1750   -7.4950 C.3   211  ASP211      0.1674
    134  C        -71.8760  -38.9840   -8.4420 C.2   211  ASP211      0.2266
    135  O        -72.8120  -38.8610   -9.2410 O.2   211  ASP211     -0.2867
    136  CB       -72.3480  -39.7730   -6.1160 C.3   211  ASP211      0.1410
    137  CG       -73.7660  -40.2430   -5.8750 C.2   211  ASP211      0.3668
    138  OD1      -74.0330  -41.4480   -6.0540 O.co2 211  ASP211     -0.2456
    139  OD2      -74.6090  -39.4090   -5.4980 O.co2 211  ASP211     -0.2456
@<TRIPOS>BOND
     1   135   134    2
     2   134   133    1
     3   133   132    1
     4   133   136    1
     5   136   137    1
     6   138   137   ar
     7   126   125    2
     8   137   139   ar
     9   125   124    1
    10   115   114    2
    11   131   129   am
    12   124   123    1
    13   124   127    1
    14   114   123   am
    15   114   113    1
    16   129   128    1
    17   129   130    2
    18   128   127    1
    19   113   112    1
    20   113   116    1
    21   122   120   ar
    22   122   121   ar
    23   120   118   ar
    24   121   119   ar
    25   118   117   ar
    26   119   117   ar
    27    71    72    1
    28    84    85    2
    29    84    83    1
    30   117   116    1
    31    11    12    1
    32    11    10    1
    33    13    12    1
    34    82    83    1
    35    82    73   am
    36    72    73    1
    37    72    75    1
    38    83    86    1
    39    73    74    2
    40    24    23   ar
    41    24    22   ar
    42    23    21   ar
    43    10     9    1
    44   111   110    2
    45    75    76    1
    46    22    20   ar
    47    86    87    1
    48    21    19   ar
    49    81    79    1
    50     9     6    1
    51    79    80    1
    52    79    78    2
    53   110   109    1
    54    76    77    1
    55    87    88    1
    56    78    77    1
    57    98    97    1
    58    20    19   ar
    59    19    18    1
    60     5     6    1
    61     5     3   am
    62    99    97    1
    63     6     7    1
    64    97    94    1
    65   109   108    1
    66    88    89    1
    67     3     2    1
    68     3     4    2
    69     2     1    1
    70    18    15    1
    71     7     8    2
    72    89    90    2
    73    94    93    1
    74    94    95    1
    75    70    68    1
    76    35    33    1
    77    15    14    1
    78    15    16    1
    79    66    65    2
    80    69    68    1
    81    95    96    2
    82    90    92    1
    83    90    91    1
    84    43    41    1
    85    68    67    1
    86    34    33    1
    87    33    32    2
    88    61    62   ar
    89    61    59   ar
    90    67    64    1
    91    62    60   ar
    92   107   105    1
    93    64    65    1
    94    64    63    1
    95    16    17    2
    96    16    25   am
    97    41    40    1
    98    32    31    1
    99    25    26    1
   100    59    58   ar
   101   105   104    1
   102    60    58   ar
   103   106   104    1
   104    30    31    1
   105    30    29    1
   106   104   101    1
   107    40    37    1
   108    40    42    1
   109    58    57    1
   110    26    29    1
   111    26    27    1
   112    36    37    1
   113    37    38    1
   114    52    50   ar
   115    56    55    2
   116    27    28    2
   117   101   100    1
   118   101   102    1
   119    57    54    1
   120    55    54    1
   121    50    51   ar
   122    50    49    1
   123    54    53    1
   124    38    39    2
   125   102   103    2
   126    49    48    1
   127    47    46    2
   128    48    45    1
   129    45    46    1
   130    45    44    1
