@<TRIPOS>MOLECULE
tmp/3aq0C00.pdb
 184 172 0 0 0
SMALL
GASTEIGER

@<TRIPOS>ATOM
      1  N        -83.4540   25.0640   -0.5290 N.3    49  ARG49      -0.1245
      2  CA       -83.1370   24.6630   -1.8870 C.3    49  ARG49       0.1563
      3  C        -83.8890   25.5270   -2.9270 C.2    49  ARG49       0.2260
      4  O        -83.2680   26.0790   -3.8450 O.2    49  ARG49      -0.2867
      5  CB       -83.3720   23.1660   -2.0810 C.3    49  ARG49       0.0307
      6  CG       -82.3770   22.2980   -1.3060 C.3    49  ARG49       0.0489
      7  CD       -82.8190   20.8410   -1.1830 C.3    49  ARG49       0.2205
      8  NE       -82.0140   20.0970   -0.1970 N.pl3  49  ARG49      -0.0865
      9  CZ       -82.2050   20.1070    1.1310 C.cat  49  ARG49       0.5346
     10  NH1      -83.1890   20.8040    1.6830 N.pl3  49  ARG49       0.1354
     11  NH2      -81.4110   19.3970    1.9190 N.pl3  49  ARG49       0.1354
     12  N        -87.9840   15.5800   -4.7880 N.3    79  ILE79      -0.1231
     13  CA       -86.8940   14.6100   -4.6040 C.3    79  ILE79       0.1692
     14  C        -86.4260   14.6060   -3.1350 C.2    79  ILE79       0.2592
     15  O        -86.1870   13.5550   -2.5320 O.2    79  ILE79      -0.2718
     16  CB       -85.7240   14.8710   -5.5640 C.3    79  ILE79       0.0266
     17  CG1      -86.1710   14.6350   -7.0080 C.3    79  ILE79       0.0019
     18  CG2      -84.5210   13.9790   -5.2510 C.3    79  ILE79       0.0020
     19  CD1      -85.1860   15.1450   -8.0470 C.3    79  ILE79       0.0001
     20  N        -86.3570   15.8070   -2.5780 N.am   80  HIS80      -0.1976
     21  CA       -85.9500   16.0320   -1.2150 C.3    80  HIS80       0.1656
     22  C        -86.8940   15.3830   -0.2210 C.2    80  HIS80       0.2291
     23  O        -86.4550   14.5900    0.6050 O.2    80  HIS80      -0.2864
     24  CB       -85.8260   17.5260   -0.9490 C.3    80  HIS80       0.0771
     25  CG       -85.4550   17.8440    0.4590 C.ar   80  HIS80       0.0820
     26  ND1      -84.3520   17.2900    1.0770 N.ar   80  HIS80      -0.2267
     27  CD2      -86.0440   18.6470    1.3750 C.ar   80  HIS80       0.1154
     28  CE1      -84.2900   17.7280    2.3150 C.ar   80  HIS80       0.1986
     29  NE2      -85.2960   18.5610    2.5170 N.ar   80  HIS80      -0.2212
     30  N        -89.0240   13.0300   -0.7920 N.3    82  ALA82      -0.1231
     31  CA       -88.9800   11.5820   -0.9830 C.3    82  ALA82       0.1694
     32  C        -87.8000   10.9570   -0.2590 C.2    82  ALA82       0.2593
     33  O        -87.9380    9.9080    0.3520 O.2    82  ALA82      -0.2718
     34  CB       -88.9600   11.2110   -2.4780 C.3    82  ALA82       0.0304
     35  N        -86.6430   11.5990   -0.3660 N.am   83  SER83      -0.1938
     36  CA       -85.4970   11.3770    0.5080 C.3    83  SER83       0.2055
     37  C        -85.8870   11.1660    1.9880 C.2    83  SER83       0.2642
     38  O        -85.4770   10.1850    2.6170 O.2    83  SER83      -0.2714
     39  CB       -84.6220   12.6210    0.4790 C.3    83  SER83       0.2130
     40  OG       -83.3600   12.3210   -0.0350 O.3    83  SER83      -0.2179
     41  N        -86.6720   12.0980    2.5240 N.am   84  LEU84      -0.1977
     42  CA       -86.9410   12.1430    3.9420 C.3    84  LEU84       0.1596
     43  C        -87.8500   11.0080    4.3720 C.2    84  LEU84       0.2287
     44  O        -87.6890   10.4390    5.4820 O.2    84  LEU84      -0.2864
     45  CB       -87.5310   13.5050    4.3440 C.3    84  LEU84       0.0297
     46  CG       -86.7010   14.7310    3.9460 C.3    84  LEU84       0.0022
     47  CD1      -87.4220   15.9990    4.3130 C.3    84  LEU84       0.0001
     48  CD2      -85.3100   14.6700    4.5280 C.3    84  LEU84       0.0001
     49  N        -88.0110    8.0080    2.9830 N.3    86  HIS86      -0.1226
     50  CA       -87.1650    6.8170    3.0520 C.3    86  HIS86       0.1752
     51  C        -86.1630    6.8800    4.2400 C.2    86  HIS86       0.2596
     52  O        -85.9070    5.8670    4.8900 O.2    86  HIS86      -0.2718
     53  CB       -86.3990    6.6470    1.7310 C.3    86  HIS86       0.0759
     54  CG       -87.2060    6.0670    0.6010 C.ar   86  HIS86       0.0818
     55  ND1      -88.5740    6.0480    0.5580 N.ar   86  HIS86      -0.2268
     56  CD2      -86.8190    5.5420   -0.5740 C.ar   86  HIS86       0.1154
     57  CE1      -88.9930    5.4790   -0.5560 C.ar   86  HIS86       0.1986
     58  NE2      -87.9400    5.1460   -1.2530 N.ar   86  HIS86      -0.2212
     59  N        -85.5830    8.0480    4.5030 N.am   87  ASP87      -0.1960
     60  CA       -84.6250    8.1560    5.5800 C.3    87  ASP87       0.1840
     61  C        -85.2510    7.8720    6.9400 C.2    87  ASP87       0.2622
     62  O        -84.6190    7.2440    7.7770 O.2    87  ASP87      -0.2715
     63  CB       -83.9510    9.5110    5.6390 C.3    87  ASP87       0.1450
     64  CG       -82.9500    9.5870    6.7790 C.2    87  ASP87       0.3671
     65  OD1      -82.0600    8.7040    6.8350 O.co2  87  ASP87      -0.2456
     66  OD2      -83.0730   10.4800    7.6450 O.co2  87  ASP87      -0.2456
     67  N        -86.4920    8.3190    7.1300 N.am   88  ASP88      -0.1971
     68  CA       -87.2200    8.1000    8.3710 C.3    88  ASP88       0.1709
     69  C        -87.5510    6.6460    8.6210 C.2    88  ASP88       0.2293
     70  O        -87.6900    6.2250    9.7870 O.2    88  ASP88      -0.2864
     71  CB       -88.4920    8.9480    8.4270 C.3    88  ASP88       0.1436
     72  CG       -88.2050   10.4420    8.5740 C.2    88  ASP88       0.3671
     73  OD1      -87.0990   10.8390    9.0170 O.co2  88  ASP88      -0.2456
     74  OD2      -89.1010   11.2330    8.2350 O.co2  88  ASP88      -0.2456
     75  N        -85.4900    4.1760    7.3240 N.3    90  LEU90      -0.1231
     76  CA       -84.1390    3.9030    7.8170 C.3    90  LEU90       0.1693
     77  C        -84.1150    4.7190    9.1090 C.2    90  LEU90       0.2592
     78  O        -84.9470    5.6060    9.2430 O.2    90  LEU90      -0.2718
     79  CB       -83.0960    4.3740    6.8060 C.3    90  LEU90       0.0284
     80  CG       -83.3460    3.8000    5.3910 C.3    90  LEU90       0.0019
     81  CD1      -82.6730    4.6240    4.2480 C.3    90  LEU90       0.0001
     82  CD2      -83.0040    2.3150    5.2930 C.3    90  LEU90       0.0001
     83  N        -83.2610    4.4640   10.0860 N.am   91  ASP91      -0.1974
     84  CA       -83.2370    5.4410   11.1830 C.3    91  ASP91       0.1709
     85  C        -84.4530    5.4830   12.1160 C.2    91  ASP91       0.2293
     86  O        -84.5160    6.3560   12.9790 O.2    91  ASP91      -0.2864
     87  CB       -83.0840    6.8760   10.6450 C.3    91  ASP91       0.1436
     88  CG       -81.6970    7.1610   10.1450 C.2    91  ASP91       0.3671
     89  OD1      -80.8530    6.2270   10.2840 O.co2  91  ASP91      -0.2456
     90  OD2      -81.4600    8.3000    9.6110 O.co2  91  ASP91      -0.2456
     91  N        -90.6180   14.5760   12.3850 N.3    96  ARG96      -0.1245
     92  CA       -89.9670   15.2510   11.2780 C.3    96  ARG96       0.1563
     93  C        -90.6060   16.6120   11.2020 C.2    96  ARG96       0.2260
     94  O        -91.8290   16.7380   11.3440 O.2    96  ARG96      -0.2867
     95  CB       -90.2170   14.5200    9.9660 C.3    96  ARG96       0.0307
     96  CG       -89.5720   15.1800    8.7670 C.3    96  ARG96       0.0489
     97  CD       -88.5720   14.2630    8.1540 C.3    96  ARG96       0.2205
     98  NE       -87.2920   14.9340    8.0490 N.pl3  96  ARG96      -0.0865
     99  CZ       -86.1210   14.3110    8.0410 C.cat  96  ARG96       0.5346
    100  NH1      -86.0500   12.9820    8.1420 N.pl3  96  ARG96       0.1354
    101  NH2      -85.0250   15.0350    7.9390 N.pl3  96  ARG96       0.1354
    102  N        -92.6400    7.8180   -1.1360 N.3   115  GLY115     -0.1210
    103  CA       -91.3450    8.2830   -1.6370 C.3   115  GLY115      0.1956
    104  C        -91.1570    7.9660   -3.1160 C.2   115  GLY115      0.2611
    105  O        -90.6740    8.8050   -3.8750 O.2   115  GLY115     -0.2717
    106  N        -91.5390    6.7460   -3.5050 N.am  116  ASP116     -0.1973
    107  CA       -91.4540    6.2830   -4.8760 C.3   116  ASP116      0.1709
    108  C        -92.4060    7.0690   -5.7680 C.2   116  ASP116      0.2293
    109  O        -92.0470    7.4660   -6.8750 O.2   116  ASP116     -0.2864
    110  CB       -91.7830    4.7910   -4.9560 C.3   116  ASP116      0.1436
    111  CG       -90.7770    3.9280   -4.2090 C.2   116  ASP116      0.3671
    112  OD1      -89.6890    4.4400   -3.8260 O.co2 116  ASP116     -0.2456
    113  OD2      -91.0720    2.7250   -4.0190 O.co2 116  ASP116     -0.2456
    114  N        -90.9550   10.4120   -6.3370 N.3   119  LEU119     -0.1245
    115  CA       -89.8180   10.2870   -7.2350 C.3   119  LEU119      0.1561
    116  C        -90.3020   10.1370   -8.6940 C.2   119  LEU119      0.2260
    117  O        -89.7080   10.6770   -9.6150 O.2   119  LEU119     -0.2867
    118  CB       -88.9900    9.0610   -6.8460 C.3   119  LEU119      0.0270
    119  CG       -87.4860    8.9570   -7.1420 C.3   119  LEU119      0.0019
    120  CD1      -87.1360    7.5000   -7.4620 C.3   119  LEU119      0.0001
    121  CD2      -86.9740    9.8850   -8.2590 C.3   119  LEU119      0.0001
    122  N        -80.3220   12.0060   -7.8410 N.3   142  VAL142     -0.1245
    123  CA       -81.0090   10.8820   -7.2400 C.3   142  VAL142      0.1561
    124  C        -80.0130    9.7640   -6.9410 C.2   142  VAL142      0.2260
    125  O        -79.9860    9.2560   -5.8280 O.2   142  VAL142     -0.2867
    126  CB       -82.1970   10.3660   -8.0910 C.3   142  VAL142      0.0252
    127  CG1      -82.7720    9.1150   -7.4690 C.3   142  VAL142      0.0019
    128  CG2      -83.2680   11.4400   -8.2370 C.3   142  VAL142      0.0019
    129  N        -77.8960   10.7660   -3.9200 N.3   145  LEU145     -0.1231
    130  CA       -78.5850   10.6210   -2.6740 C.3   145  LEU145      0.1693
    131  C        -78.4380    9.2040   -2.1330 C.2   145  LEU145      0.2591
    132  O        -78.0460    9.0170   -0.9650 O.2   145  LEU145     -0.2718
    133  CB       -80.0520   11.0270   -2.8030 C.3   145  LEU145      0.0284
    134  CG       -80.3350   12.5410   -2.8110 C.3   145  LEU145      0.0019
    135  CD1      -81.7540   12.8380   -3.2110 C.3   145  LEU145      0.0001
    136  CD2      -80.1100   13.1120   -1.4490 C.3   145  LEU145      0.0001
    137  N        -78.6950    8.2100   -2.9800 N.am  146  VAL146     -0.1980
    138  CA       -78.6850    6.8130   -2.5610 C.3   146  VAL146      0.1595
    139  C        -77.2880    6.4180   -2.1470 C.2   146  VAL146      0.2287
    140  O        -77.0970    5.6640   -1.2040 O.2   146  VAL146     -0.2864
    141  CB       -79.1850    5.8690   -3.6950 C.3   146  VAL146      0.0276
    142  CG1      -79.0310    4.3890   -3.2940 C.3   146  VAL146      0.0022
    143  CG2      -80.6440    6.2410   -4.1290 C.3   146  VAL146      0.0022
    144  N        -76.4000    7.9870    1.3780 N.3   149  GLU149     -0.1245
    145  CA       -77.1060    7.2450    2.4160 C.3   149  GLU149      0.1567
    146  C        -76.4500    5.9080    2.6630 C.2   149  GLU149      0.2260
    147  O        -76.3300    5.4520    3.8060 O.2   149  GLU149     -0.2867
    148  CB       -78.5620    7.0320    1.9940 C.3   149  GLU149      0.0388
    149  CG       -79.4960    6.5290    3.0880 C.3   149  GLU149      0.1160
    150  CD       -79.8450    7.6110    4.1070 C.2   149  GLU149      0.3649
    151  OE1      -78.9570    8.4310    4.4210 O.co2 149  GLU149     -0.2457
    152  OE2      -81.0040    7.6380    4.5950 O.co2 149  GLU149     -0.2457
    153  N        -72.9270    6.1600    4.5410 N.3   152  GLU152     -0.1245
    154  CA       -73.0720    6.4110    5.9690 C.3   152  GLU152      0.1567
    155  C        -73.1770    5.0700    6.6880 C.2   152  GLU152      0.2260
    156  O        -72.5270    4.8470    7.7110 O.2   152  GLU152     -0.2867
    157  CB       -74.3440    7.2320    6.2080 C.3   152  GLU152      0.0388
    158  CG       -74.1990    8.4070    7.1410 C.3   152  GLU152      0.1160
    159  CD       -75.3070    9.4250    6.9350 C.2   152  GLU152      0.3649
    160  OE1      -74.9970   10.6470    6.8170 O.co2 152  GLU152     -0.2457
    161  OE2      -76.4900    9.0000    6.8700 O.co2 152  GLU152     -0.2457
    162  N        -74.6790   12.9100   -0.3490 N.3   173  LYS173     -0.1231
    163  CA       -75.8990   12.9800    0.4470 C.3   173  LYS173      0.1693
    164  C        -76.5680   14.3480    0.5040 C.2   173  LYS173      0.2592
    165  O        -77.7900   14.4140    0.6230 O.2   173  LYS173     -0.2718
    166  CB       -75.6490   12.4780    1.8570 C.3   173  LYS173      0.0285
    167  CG       -76.8950   12.4080    2.7150 C.3   173  LYS173      0.0035
    168  CD       -76.5510   11.9990    4.1190 C.3   173  LYS173      0.0206
    169  CE       -77.2620   12.8980    5.1040 C.3   173  LYS173      0.1093
    170  NZ       -76.8650   12.6050    6.5180 N.3   173  LYS173     -0.1314
    171  N        -75.7980   15.4270    0.4200 N.am  174  THR174     -0.1953
    172  CA       -76.3730   16.7420    0.6780 C.3   174  THR174      0.1897
    173  C        -76.1330   17.7630   -0.4250 C.2   174  THR174      0.2313
    174  O        -77.0770   18.3870   -0.9020 O.2   174  THR174     -0.2863
    175  CB       -75.8850   17.3460    2.0560 C.3   174  THR174      0.1794
    176  OG1      -75.9960   16.3710    3.1020 O.3   174  THR174     -0.2208
    177  CG2      -76.6630   18.6280    2.4180 C.3   174  THR174      0.0378
    178  N        -73.3490    9.1930   15.2430 N.3   238  VAL238     -0.1245
    179  CA       -73.0750    9.6370   13.8770 C.3   238  VAL238      0.1561
    180  C        -71.8330   10.5290   13.9590 C.2   238  VAL238      0.2260
    181  O        -71.7970   11.4800   14.7480 O.2   238  VAL238     -0.2867
    182  CB       -74.2400   10.4470   13.2850 C.3   238  VAL238      0.0252
    183  CG1      -74.1770   10.4300   11.7540 C.3   238  VAL238      0.0019
    184  CG2      -75.5830    9.8930   13.7560 C.3   238  VAL238      0.0019
@<TRIPOS>BOND
     1   117   116    2
     2   116   115    1
     3   121   119    1
     4   128   126    1
     5   126   127    1
     6   126   123    1
     7    19    17    1
     8   122   123    1
     9   120   119    1
    10   123   124    1
    11   115   118    1
    12   115   114    1
    13   119   118    1
    14    17    16    1
    15   124   125    2
    16   109   108    2
    17   108   107    1
    18    16    18    1
    19    16    13    1
    20   110   107    1
    21   110   111    1
    22   107   106    1
    23    12    13    1
    24    13    14    1
    25   111   113   ar
    26   111   112   ar
    27   143   141    1
    28   129   130    1
    29   105   104    2
    30     4     3    2
    31   141   142    1
    32   141   138    1
    33   106   104   am
    34   135   134    1
    35    14    20   am
    36    14    15    2
    37   104   103    1
    38   137   138    1
    39   137   131   am
    40     3     2    1
    41   134   133    1
    42   134   136    1
    43   133   130    1
    44   130   131    1
    45    20    21    1
    46   138   139    1
    47    34    31    1
    48   139   140    2
    49   131   132    2
    50     5     2    1
    51     5     6    1
    52     2     1    1
    53   103   102    1
    54     6     7    1
    55    58    56   ar
    56    58    57   ar
    57    21    24    1
    58    21    22    1
    59     7     8    1
    60    31    30    1
    61    31    32    1
    62    24    25    1
    63   174   173    2
    64    56    54   ar
    65    57    55   ar
    66   173   172    1
    67    35    32   am
    68    35    36    1
    69   162   163    1
    70    32    33    2
    71    22    23    2
    72     8     9    2
    73    40    39    1
    74   171   164   am
    75   171   172    1
    76   163   164    1
    77   163   166    1
    78    25    26   ar
    79    25    27   ar
    80    39    36    1
    81   164   165    2
    82    36    37    1
    83    55    54   ar
    84    54    53    1
    85   172   175    1
    86    26    28   ar
    87     9    10    1
    88     9    11    1
    89    27    29   ar
    90   144   145    1
    91    53    50    1
    92   166   167    1
    93    37    41   am
    94    37    38    2
    95   148   145    1
    96   148   149    1
    97   175   177    1
    98   175   176    1
    99    28    29   ar
   100   145   146    1
   101    41    42    1
   102   146   147    2
   103   167   168    1
   104    49    50    1
   105    50    51    1
   106   149   150    1
   107    42    45    1
   108    42    43    1
   109    46    47    1
   110    46    45    1
   111    46    48    1
   112   150   151   ar
   113   150   152   ar
   114   168   169    1
   115    51    59   am
   116    51    52    2
   117    81    80    1
   118    43    44    2
   119    59    60    1
   120   153   154    1
   121   169   170    1
   122    82    80    1
   123    80    79    1
   124    60    63    1
   125    60    61    1
   126    63    64    1
   127   154   157    1
   128   154   155    1
   129   157   158    1
   130   155   156    2
   131    64    65   ar
   132    64    66   ar
   133    79    76    1
   134   160   159   ar
   135   161   159   ar
   136   159   158    1
   137    61    67   am
   138    61    62    2
   139    67    68    1
   140    75    76    1
   141    76    77    1
   142   101    99    1
   143    99    98    2
   144    99   100    1
   145    98    97    1
   146    97    96    1
   147    74    72   ar
   148    68    71    1
   149    68    69    1
   150    71    72    1
   151    72    73   ar
   152    69    70    2
   153    96    95    1
   154    77    78    2
   155    77    83   am
   156    90    88   ar
   157    95    92    1
   158    83    84    1
   159    88    89   ar
   160    88    87    1
   161    87    84    1
   162    84    85    1
   163    93    92    1
   164    93    94    2
   165    92    91    1
   166   183   182    1
   167    85    86    2
   168   182   184    1
   169   182   179    1
   170   179   180    1
   171   179   178    1
   172   180   181    2
