@<TRIPOS>MOLECULE
tmp/3aq0G01.pdb
 136 129 0 0 0
SMALL
GASTEIGER

@<TRIPOS>ATOM
      1  N        -80.1440  -10.7340   30.4850 N.3    46  PHE46      -0.1227
      2  CA       -80.8390  -11.2040   31.6560 C.3    46  PHE46       0.1736
      3  C        -80.6060  -12.6520   32.0120 C.2    46  PHE46       0.2595
      4  O        -80.4760  -12.9670   33.1460 O.2    46  PHE46      -0.2718
      5  CB       -82.3050  -10.9130   31.5290 C.3    46  PHE46       0.0547
      6  CG       -82.6010   -9.4750   31.4360 C.ar   46  PHE46      -0.0202
      7  CD1      -81.6030   -8.5690   31.5180 C.ar   46  PHE46      -0.0042
      8  CD2      -83.8610   -9.0270   31.2740 C.ar   46  PHE46      -0.0042
      9  CE1      -81.8590   -7.2640   31.4480 C.ar   46  PHE46      -0.0003
     10  CE2      -84.1030   -7.7210   31.1990 C.ar   46  PHE46      -0.0003
     11  CZ       -83.1040   -6.8400   31.2870 C.ar   46  PHE46      -0.0000
     12  N        -80.5650  -13.5380   31.0410 N.am   47  ARG47      -0.1980
     13  CA       -80.2140  -14.9390   31.2870 C.3    47  ARG47       0.1597
     14  C        -78.7720  -15.0760   31.7510 C.2    47  ARG47       0.2287
     15  O        -78.4690  -15.9140   32.6080 O.2    47  ARG47      -0.2864
     16  CB       -80.4430  -15.7990   30.0560 C.3    47  ARG47       0.0334
     17  CG       -81.8880  -16.2070   29.8670 C.3    47  ARG47       0.0492
     18  CD       -82.1570  -16.8190   28.4890 C.3    47  ARG47       0.2205
     19  NE       -83.3870  -16.2360   27.9870 N.pl3  47  ARG47      -0.0865
     20  CZ       -83.4320  -15.1500   27.2180 C.cat  47  ARG47       0.5346
     21  NH1      -82.3090  -14.5530   26.8000 N.pl3  47  ARG47       0.1354
     22  NH2      -84.6100  -14.6760   26.8440 N.pl3  47  ARG47       0.1354
     23  N        -76.8380  -12.7000   33.2880 N.3    49  THR49      -0.1203
     24  CA       -76.7790  -12.1410   34.6190 C.3    49  THR49       0.1994
     25  C        -77.1880  -13.1900   35.6540 C.2    49  THR49       0.2617
     26  O        -76.4560  -13.4130   36.6100 O.2    49  THR49      -0.2717
     27  CB       -77.6810  -10.9000   34.7260 C.3    49  THR49       0.1784
     28  OG1      -77.1410   -9.8600   33.9140 O.3    49  THR49      -0.2211
     29  CG2      -77.7750  -10.3910   36.1510 C.3    49  THR49       0.0376
     30  N        -78.3340  -13.8420   35.4640 N.am   50  ILE50      -0.1979
     31  CA       -78.7700  -14.8960   36.3890 C.3    50  ILE50       0.1595
     32  C        -77.7560  -16.0110   36.5330 C.2    50  ILE50       0.2287
     33  O        -77.4500  -16.4420   37.6400 O.2    50  ILE50      -0.2864
     34  CB       -80.1240  -15.5060   35.9870 C.3    50  ILE50       0.0276
     35  CG1      -81.2680  -14.5840   36.4200 C.3    50  ILE50       0.0022
     36  CG2      -80.3010  -16.8880   36.5930 C.3    50  ILE50       0.0022
     37  CD1      -82.6060  -15.0580   35.9590 C.3    50  ILE50       0.0001
     38  N        -90.2990  -20.4390   27.4850 N.3   160  THR160     -0.1218
     39  CA       -89.5690  -19.4170   28.2080 C.3   160  THR160      0.1862
     40  C        -88.7540  -19.8850   29.4090 C.2   160  THR160      0.2287
     41  O        -87.6980  -19.3260   29.6780 O.2   160  THR160     -0.2866
     42  CB       -90.4890  -18.2400   28.5900 C.3   160  THR160      0.1770
     43  OG1      -91.0550  -17.6900   27.3910 O.3   160  THR160     -0.2211
     44  CG2      -89.6940  -17.1360   29.3400 C.3   160  THR160      0.0375
     45  N        -83.7920  -21.5960   30.8100 N.3   164  ILE164     -0.1245
     46  CA       -83.1660  -20.9810   31.9780 C.3   164  ILE164      0.1561
     47  C        -83.0760  -21.9050   33.2200 C.2   164  ILE164      0.2260
     48  O        -82.0810  -21.8920   33.9420 O.2   164  ILE164     -0.2867
     49  CB       -83.7840  -19.5700   32.2950 C.3   164  ILE164      0.0252
     50  CG1      -82.9620  -18.8610   33.3610 C.3   164  ILE164      0.0019
     51  CG2      -85.2650  -19.6590   32.6510 C.3   164  ILE164      0.0019
     52  CD1      -81.4920  -18.6210   32.9150 C.3   164  ILE164      0.0001
     53  N        -88.4790  -18.1830   38.1480 N.3   192  LEU192     -0.1231
     54  CA       -88.2300  -16.8150   37.7510 C.3   192  LEU192      0.1693
     55  C        -88.6450  -16.6170   36.2810 C.2   192  LEU192      0.2592
     56  O        -89.1970  -15.5720   35.9310 O.2   192  LEU192     -0.2718
     57  CB       -86.7800  -16.4190   37.9850 C.3   192  LEU192      0.0284
     58  CG       -86.3950  -14.9370   37.8210 C.3   192  LEU192      0.0019
     59  CD1      -87.1130  -14.0060   38.7700 C.3   192  LEU192      0.0001
     60  CD2      -84.9310  -14.7810   38.0330 C.3   192  LEU192      0.0001
     61  N        -88.4070  -17.6360   35.4400 N.am  193  GLY193     -0.1957
     62  CA       -88.7330  -17.5700   34.0350 C.3   193  GLY193      0.1869
     63  C        -90.2210  -17.4340   33.7680 C.2   193  GLY193      0.2309
     64  O        -90.6490  -16.5970   32.9670 O.2   193  GLY193     -0.2863
     65  N        -91.1230  -14.0120   34.6480 N.3   196  PHE196     -0.1241
     66  CA       -90.6710  -13.0690   33.6410 C.3   196  PHE196      0.1605
     67  C        -91.6270  -12.9760   32.4470 C.2   196  PHE196      0.2264
     68  O        -92.0040  -11.8870   32.0440 O.2   196  PHE196     -0.2867
     69  CB       -89.2680  -13.3990   33.1540 C.3   196  PHE196      0.0534
     70  CG       -88.7060  -12.3570   32.2320 C.ar  196  PHE196     -0.0203
     71  CD1      -88.0450  -11.2530   32.7370 C.ar  196  PHE196     -0.0042
     72  CD2      -88.8640  -12.4650   30.8550 C.ar  196  PHE196     -0.0042
     73  CE1      -87.5240  -10.2710   31.8660 C.ar  196  PHE196     -0.0003
     74  CE2      -88.3680  -11.4920   30.0010 C.ar  196  PHE196     -0.0003
     75  CZ       -87.6960  -10.4040   30.5070 C.ar  196  PHE196     -0.0000
     76  N        -83.4340   -9.9300   42.2240 N.3   305  LEU305     -0.1245
     77  CA       -83.9510  -10.1540   40.8730 C.3   305  LEU305      0.1561
     78  C        -85.3740  -10.6600   40.8430 C.2   305  LEU305      0.2260
     79  O        -86.1250  -10.3250   39.9360 O.2   305  LEU305     -0.2867
     80  CB       -83.0460  -11.0980   40.0880 C.3   305  LEU305      0.0270
     81  CG       -82.1250  -10.4570   39.0440 C.3   305  LEU305      0.0019
     82  CD1      -81.7860   -8.9950   39.3370 C.3   305  LEU305      0.0001
     83  CD2      -80.8700  -11.2920   38.8690 C.3   305  LEU305      0.0001
     84  N        -87.4270   -7.2820   41.3390 N.3   308  ARG308     -0.1231
     85  CA       -87.3340   -6.4100   40.2040 C.3   308  ARG308      0.1694
     86  C        -88.0690   -6.9550   38.9690 C.2   308  ARG308      0.2591
     87  O        -88.5110   -6.1860   38.1250 O.2   308  ARG308     -0.2718
     88  CB       -85.8640   -6.2270   39.8810 C.3   308  ARG308      0.0321
     89  CG       -85.1650   -5.1440   40.6360 C.3   308  ARG308      0.0489
     90  CD       -83.8460   -4.9000   39.9250 C.3   308  ARG308      0.2205
     91  NE       -83.3080   -3.5770   40.2030 N.pl3 308  ARG308     -0.0865
     92  CZ       -82.4180   -3.3420   41.1540 C.cat 308  ARG308      0.5346
     93  NH1      -81.9710   -4.3500   41.8980 N.pl3 308  ARG308      0.1354
     94  NH2      -81.9800   -2.1060   41.3710 N.pl3 308  ARG308      0.1354
     95  N        -88.1840   -8.2750   38.8540 N.am  309  VAL309     -0.1980
     96  CA       -88.8490   -8.8720   37.7220 C.3   309  VAL309      0.1595
     97  C        -90.3230   -8.4970   37.7440 C.2   309  VAL309      0.2287
     98  O        -90.9640   -8.4330   36.7010 O.2   309  VAL309     -0.2864
     99  CB       -88.6960  -10.4160   37.6980 C.3   309  VAL309      0.0276
    100  CG1      -89.7820  -11.1040   38.5250 C.3   309  VAL309      0.0022
    101  CG2      -88.7810  -10.9290   36.3050 C.3   309  VAL309      0.0022
    102  N        -91.7030   -5.6350   39.1760 N.3   311  THR311     -0.1203
    103  CA       -91.9580   -4.2000   39.1410 C.3   311  THR311      0.1994
    104  C        -91.4260   -3.4870   37.8990 C.2   311  THR311      0.2618
    105  O        -91.5270   -2.2720   37.7980 O.2   311  THR311     -0.2717
    106  CB       -91.3670   -3.5100   40.3760 C.3   311  THR311      0.1784
    107  OG1      -89.9740   -3.8410   40.4660 O.3   311  THR311     -0.2211
    108  CG2      -92.1090   -3.9520   41.6520 C.3   311  THR311      0.0376
    109  N        -90.8880   -4.2260   36.9320 N.am  312  ARG312     -0.1965
    110  CA       -90.2980   -3.5910   35.7480 C.3   312  ARG312      0.1729
    111  C        -91.2960   -2.9460   34.7810 C.2   312  ARG312      0.2616
    112  O        -92.3950   -3.4570   34.5700 O.2   312  ARG312     -0.2715
    113  CB       -89.3620   -4.5430   35.0080 C.3   312  ARG312      0.0348
    114  CG       -90.0270   -5.5730   34.1560 C.3   312  ARG312      0.0492
    115  CD       -89.0130   -6.6050   33.7470 C.3   312  ARG312      0.2205
    116  NE       -89.6760   -7.7710   33.1870 N.pl3 312  ARG312     -0.0865
    117  CZ       -89.9020   -7.9440   31.8940 C.cat 312  ARG312      0.5346
    118  NH1      -89.5210   -7.0320   31.0190 N.pl3 312  ARG312      0.1354
    119  NH2      -90.5200   -9.0310   31.4770 N.pl3 312  ARG312      0.1354
    120  N        -90.8900   -1.8140   34.2120 N.am  313  ASN313     -0.1958
    121  CA       -91.6870   -1.1220   33.2300 C.3   313  ASN313      0.1819
    122  C        -91.0350   -1.2310   31.8480 C.2   313  ASN313      0.2621
    123  O        -91.5480   -0.6960   30.8560 O.2   313  ASN313     -0.2715
    124  CB       -91.8940    0.3330   33.6380 C.3   313  ASN313      0.1195
    125  CG       -93.3490    0.7910   33.4760 C.2   313  ASN313      0.2630
    126  OD1      -93.6440    1.9990   33.5530 O.2   313  ASN313     -0.2716
    127  ND2      -94.2700   -0.1700   33.2640 N.am  313  ASN313     -0.0877
    128  N        -89.9060   -1.9350   31.7980 N.am  314  LYS314     -0.1977
    129  CA       -89.1880   -2.1960   30.5630 C.3   314  LYS314      0.1596
    130  C        -89.0750   -3.7070   30.4180 C.2   314  LYS314      0.2287
    131  O        -88.5890   -4.3810   31.3360 O.2   314  LYS314     -0.2864
    132  CB       -87.7930   -1.5520   30.5960 C.3   314  LYS314      0.0298
    133  CG       -87.8130   -0.0310   30.7660 C.3   314  LYS314      0.0038
    134  CD       -86.4890    0.5440   31.3000 C.3   314  LYS314      0.0206
    135  CE       -86.6470    2.0610   31.5910 C.3   314  LYS314      0.1093
    136  NZ       -85.4330    2.9110   31.2880 N.3   314  LYS314     -0.1314
@<TRIPOS>BOND
     1    21    20    1
     2    22    20    1
     3    20    19    2
     4    43    42    1
     5    38    39    1
     6    19    18    1
     7    39    42    1
     8    39    40    1
     9    18    17    1
    10    42    44    1
    11    40    41    2
    12    17    16    1
    13    74    75   ar
    14    74    72   ar
    15    16    13    1
    16   130   129    1
    17   130   131    2
    18     1     2    1
    19    75    73   ar
    20   129   132    1
    21   129   128    1
    22   132   133    1
    23   133   134    1
    24    45    46    1
    25    72    70   ar
    26   123   122    2
    27   118   117    1
    28    12    13    1
    29    12     3   am
    30    10     8   ar
    31    10    11   ar
    32     8     6   ar
    33    13    14    1
    34    11     9   ar
    35   136   135    1
    36   134   135    1
    37     6     7   ar
    38     6     5    1
    39     9     7   ar
    40   119   117    1
    41     5     2    1
    42     2     3    1
    43    14    15    2
    44   128   122   am
    45   122   121    1
    46    73    71   ar
    47   117   116    2
    48    46    49    1
    49    46    47    1
    50     3     4    2
    51    68    67    2
    52    70    71   ar
    53    70    69    1
    54    49    51    1
    55    49    50    1
    56    67    66    1
    57    52    50    1
    58    64    63    2
    59    69    66    1
    60   116   115    1
    61    47    48    2
    62   121   124    1
    63   121   120    1
    64   127   125   am
    65    23    24    1
    66   125   126    2
    67   125   124    1
    68    66    65    1
    69   115   114    1
    70    63    62    1
    71    28    27    1
    72    62    61    1
    73   114   113    1
    74   120   111   am
    75   112   111    2
    76    24    27    1
    77    24    25    1
    78    27    29    1
    79   111   110    1
    80   113   110    1
    81    61    55   am
    82    30    25   am
    83    30    31    1
    84    25    26    2
    85   110   109    1
    86    56    55    2
    87    37    35    1
    88    34    31    1
    89    34    35    1
    90    34    36    1
    91    55    54    1
    92   101    99    1
    93    31    32    1
    94    32    33    2
    95    98    97    2
    96   109   104   am
    97    99    96    1
    98    99   100    1
    99    96    97    1
   100    96    95    1
   101    54    57    1
   102    54    53    1
   103   105   104    2
   104    58    57    1
   105    58    60    1
   106    58    59    1
   107   104   103    1
   108    87    86    2
   109    95    86   am
   110    83    81    1
   111    86    85    1
   112    81    82    1
   113    81    80    1
   114   103   102    1
   115   103   106    1
   116    88    85    1
   117    88    89    1
   118    90    91    1
   119    90    89    1
   120    79    78    2
   121    80    77    1
   122    91    92    2
   123    85    84    1
   124   106   107    1
   125   106   108    1
   126    78    77    1
   127    77    76    1
   128    92    94    1
   129    92    93    1
