@<TRIPOS>MOLECULE
tmp/3aq0C01.pdb
 103 98 0 0 0
SMALL
GASTEIGER

@<TRIPOS>ATOM
      1  N        -91.3630   22.8200    5.5520 N.3    45  GLY45      -0.1210
      2  CA       -89.9930   23.0050    5.9860 C.3    45  GLY45       0.1956
      3  C        -89.3920   24.2940    5.4770 C.2    45  GLY45       0.2611
      4  O        -90.0830   25.1480    4.9270 O.2    45  GLY45      -0.2717
      5  N        -88.0930   24.4320    5.6970 N.am   46  LYS46      -0.1979
      6  CA       -87.3550   25.5780    5.2370 C.3    46  LYS46       0.1596
      7  C        -87.0750   25.2930    3.7790 C.2    46  LYS46       0.2287
      8  O        -86.5770   24.2150    3.3970 O.2    46  LYS46      -0.2864
      9  CB       -86.0700   25.7120    6.0380 C.3    46  LYS46       0.0298
     10  CG       -86.2760   25.5030    7.5530 C.3    46  LYS46       0.0038
     11  CD       -84.9670   25.5210    8.3260 C.3    46  LYS46       0.0206
     12  CE       -84.0230   24.4120    7.8630 C.3    46  LYS46       0.1093
     13  NZ       -84.5250   23.0480    8.1690 N.3    46  LYS46      -0.1314
     14  N        -84.9460   26.1350    1.6820 N.3    48  PHE48      -0.1227
     15  CA       -83.5970   26.6320    1.3620 C.3    48  PHE48       0.1736
     16  C        -83.1330   26.2710   -0.0690 C.2    48  PHE48       0.2595
     17  O        -82.4920   27.0800   -0.7420 O.2    48  PHE48      -0.2718
     18  CB       -82.5500   26.1660    2.3850 C.3    48  PHE48       0.0547
     19  CG       -82.7050   26.7690    3.7730 C.ar   48  PHE48      -0.0202
     20  CD1      -83.6400   27.7720    4.0440 C.ar   48  PHE48      -0.0042
     21  CD2      -81.8840   26.3360    4.8120 C.ar   48  PHE48      -0.0042
     22  CE1      -83.7590   28.3200    5.3350 C.ar   48  PHE48      -0.0003
     23  CE2      -82.0040   26.8700    6.1050 C.ar   48  PHE48      -0.0003
     24  CZ       -82.9350   27.8710    6.3630 C.ar   48  PHE48      -0.0000
     25  N        -83.4540   25.0640   -0.5290 N.am   49  ARG49      -0.1980
     26  CA       -83.1370   24.6630   -1.8870 C.3    49  ARG49       0.1597
     27  C        -83.8890   25.5270   -2.9270 C.2    49  ARG49       0.2287
     28  O        -83.2680   26.0790   -3.8450 O.2    49  ARG49      -0.2864
     29  CB       -83.3720   23.1660   -2.0810 C.3    49  ARG49       0.0334
     30  CG       -82.3770   22.2980   -1.3060 C.3    49  ARG49       0.0492
     31  CD       -82.8190   20.8410   -1.1830 C.3    49  ARG49       0.2205
     32  NE       -82.0140   20.0970   -0.1970 N.pl3  49  ARG49      -0.0865
     33  CZ       -82.2050   20.1070    1.1310 C.cat  49  ARG49       0.5346
     34  NH1      -83.1890   20.8040    1.6830 N.pl3  49  ARG49       0.1354
     35  NH2      -81.4110   19.3970    1.9190 N.pl3  49  ARG49       0.1354
     36  N        -87.6250   19.8340   -4.6340 N.3    77  GLU77      -0.1245
     37  CA       -88.3570   19.6220   -3.4000 C.3    77  GLU77       0.1567
     38  C        -88.9860   18.2360   -3.3300 C.2    77  GLU77       0.2260
     39  O        -88.8730   17.5580   -2.3100 O.2    77  GLU77      -0.2867
     40  CB       -89.4200   20.6980   -3.1930 C.3    77  GLU77       0.0388
     41  CG       -89.2790   21.4110   -1.8580 C.3    77  GLU77       0.1160
     42  CD       -87.9650   22.2110   -1.7640 C.2    77  GLU77       0.3649
     43  OE1      -87.6520   22.9440   -2.7390 O.co2  77  GLU77      -0.2457
     44  OE2      -87.2480   22.0970   -0.7430 O.co2  77  GLU77      -0.2457
     45  N        -86.3570   15.8070   -2.5780 N.3    80  HIS80      -0.1241
     46  CA       -85.9500   16.0320   -1.2150 C.3    80  HIS80       0.1621
     47  C        -86.8940   15.3830   -0.2210 C.2    80  HIS80       0.2264
     48  O        -86.4550   14.5900    0.6050 O.2    80  HIS80      -0.2867
     49  CB       -85.8260   17.5260   -0.9490 C.3    80  HIS80       0.0745
     50  CG       -85.4550   17.8440    0.4590 C.ar   80  HIS80       0.0817
     51  ND1      -84.3520   17.2900    1.0770 N.ar   80  HIS80      -0.2268
     52  CD2      -86.0440   18.6470    1.3750 C.ar   80  HIS80       0.1154
     53  CE1      -84.2900   17.7280    2.3150 C.ar   80  HIS80       0.1986
     54  NE2      -85.2960   18.5610    2.5170 N.ar   80  HIS80      -0.2212
     55  N        -86.6720   12.0980    2.5240 N.3    84  LEU84      -0.1245
     56  CA       -86.9410   12.1430    3.9420 C.3    84  LEU84       0.1561
     57  C        -87.8500   11.0080    4.3720 C.2    84  LEU84       0.2260
     58  O        -87.6890   10.4390    5.4820 O.2    84  LEU84      -0.2867
     59  CB       -87.5310   13.5050    4.3440 C.3    84  LEU84       0.0270
     60  CG       -86.7010   14.7310    3.9460 C.3    84  LEU84       0.0019
     61  CD1      -87.4220   15.9990    4.3130 C.3    84  LEU84       0.0001
     62  CD2      -85.3100   14.6700    4.5280 C.3    84  LEU84       0.0001
     63  N        -90.6180   14.5760   12.3850 N.3    96  ARG96      -0.1231
     64  CA       -89.9670   15.2510   11.2780 C.3    96  ARG96       0.1694
     65  C        -90.6060   16.6120   11.2020 C.2    96  ARG96       0.2591
     66  O        -91.8290   16.7380   11.3440 O.2    96  ARG96      -0.2718
     67  CB       -90.2170   14.5200    9.9660 C.3    96  ARG96       0.0321
     68  CG       -89.5720   15.1800    8.7670 C.3    96  ARG96       0.0489
     69  CD       -88.5720   14.2630    8.1540 C.3    96  ARG96       0.2205
     70  NE       -87.2920   14.9340    8.0490 N.pl3  96  ARG96      -0.0865
     71  CZ       -86.1210   14.3110    8.0410 C.cat  96  ARG96       0.5346
     72  NH1      -86.0500   12.9820    8.1420 N.pl3  96  ARG96       0.1354
     73  NH2      -85.0250   15.0350    7.9390 N.pl3  96  ARG96       0.1354
     74  N        -89.7840   17.6310   10.9680 N.am   97  ARG97      -0.1980
     75  CA       -90.2720   18.9990   10.9730 C.3    97  ARG97       0.1597
     76  C        -91.0660   19.1890   12.2740 C.2    97  ARG97       0.2287
     77  O        -90.5690   18.8060   13.3560 O.2    97  ARG97      -0.2864
     78  CB       -91.0490   19.3100    9.6820 C.3    97  ARG97       0.0334
     79  CG       -90.1160   19.3420    8.4570 C.3    97  ARG97       0.0492
     80  CD       -90.8230   19.3220    7.1050 C.3    97  ARG97       0.2205
     81  NE       -89.8570   19.4240    6.0030 N.pl3  97  ARG97      -0.0865
     82  CZ       -90.1440   19.3050    4.7040 C.cat  97  ARG97       0.5346
     83  NH1      -91.3850   19.0750    4.3000 N.pl3  97  ARG97       0.1354
     84  NH2      -89.1770   19.4010    3.8100 N.pl3  97  ARG97       0.1354
     85  N        -72.8160   24.7510    4.6610 N.3   210  PHE210     -0.1241
     86  CA       -73.9650   24.6010    5.5240 C.3   210  PHE210      0.1605
     87  C        -73.8880   23.3360    6.3760 C.2   210  PHE210      0.2264
     88  O        -73.9910   23.4020    7.6140 O.2   210  PHE210     -0.2867
     89  CB       -75.2420   24.5910    4.6910 C.3   210  PHE210      0.0534
     90  CG       -76.4850   24.6170    5.5060 C.ar  210  PHE210     -0.0203
     91  CD1      -77.0320   25.8230    5.9090 C.ar  210  PHE210     -0.0042
     92  CD2      -77.1060   23.4350    5.8710 C.ar  210  PHE210     -0.0042
     93  CE1      -78.1980   25.8480    6.6790 C.ar  210  PHE210     -0.0003
     94  CE2      -78.2610   23.4400    6.6550 C.ar  210  PHE210     -0.0003
     95  CZ       -78.8170   24.6460    7.0530 C.ar  210  PHE210     -0.0000
     96  N        -73.6810   23.0920   10.4390 N.3   214  ASP214     -0.1239
     97  CA       -74.6870   22.3140   11.1570 C.3   214  ASP214      0.1674
     98  C        -74.0820   21.3060   12.1280 C.2   214  ASP214      0.2266
     99  O        -74.5330   21.2110   13.2770 O.2   214  ASP214     -0.2867
    100  CB       -75.6530   21.6310   10.1800 C.3   214  ASP214      0.1410
    101  CG       -77.0410   22.2720   10.1860 C.2   214  ASP214      0.3668
    102  OD1      -77.1730   23.4530   10.5980 O.co2 214  ASP214     -0.2456
    103  OD2      -78.0120   21.5820    9.7970 O.co2 214  ASP214     -0.2456
@<TRIPOS>BOND
     1    36    37    1
     2    28    27    2
     3    37    38    1
     4    37    40    1
     5    38    39    2
     6    40    41    1
     7    27    26    1
     8    43    42   ar
     9    45    46    1
    10    29    26    1
    11    29    30    1
    12    26    25    1
    13    41    42    1
    14    42    44   ar
    15    30    31    1
    16    46    49    1
    17    46    47    1
    18    31    32    1
    19    49    50    1
    20    17    16    2
    21    25    16   am
    22    47    48    2
    23    32    33    2
    24    16    15    1
    25    50    51   ar
    26    50    52   ar
    27    51    53   ar
    28    33    34    1
    29    33    35    1
    30    15    14    1
    31    15    18    1
    32    52    54   ar
    33    53    54   ar
    34    18    19    1
    35    55    56    1
    36     8     7    2
    37    19    20   ar
    38    19    21   ar
    39     7     6    1
    40    84    82    1
    41    56    59    1
    42    56    57    1
    43    60    61    1
    44    60    59    1
    45    60    62    1
    46    20    22   ar
    47    83    82    1
    48    57    58    2
    49    85    86    1
    50    89    90    1
    51    89    86    1
    52    82    81    2
    53    21    23   ar
    54     4     3    2
    55     6     5    1
    56     6     9    1
    57    22    24   ar
    58     3     5   am
    59     3     2    1
    60    90    92   ar
    61    90    91   ar
    62    86    87    1
    63     1     2    1
    64    92    94   ar
    65    91    93   ar
    66    81    80    1
    67     9    10    1
    68    23    24   ar
    69    87    88    2
    70    94    95   ar
    71    93    95   ar
    72    80    79    1
    73    10    11    1
    74    12    13    1
    75    12    11    1
    76    73    71    1
    77    71    70    2
    78    71    72    1
    79    70    69    1
    80    69    68    1
    81    79    78    1
    82    68    67    1
    83    78    75    1
    84   103   101   ar
    85    67    64    1
    86   100   101    1
    87   100    97    1
    88   101   102   ar
    89    96    97    1
    90    74    75    1
    91    74    65   am
    92    75    76    1
    93    97    98    1
    94    65    64    1
    95    65    66    2
    96    64    63    1
    97    98    99    2
    98    76    77    2
