@<TRIPOS>MOLECULE
tmp/3aq7A00.pdb
 248 237 0 0 0
SMALL
GASTEIGER

@<TRIPOS>ATOM
      1  N         12.9860   20.0940   12.9200 N.3    30  VAL30      -0.1245
      2  CA        14.4250   20.0160   12.9430 C.3    30  VAL30       0.1561
      3  C         15.0680   19.1650   14.0650 C.2    30  VAL30       0.2260
      4  O         16.3020   18.9460   14.0370 O.2    30  VAL30      -0.2867
      5  CB        15.0800   21.4340   13.0920 C.3    30  VAL30       0.0252
      6  CG1       14.9430   22.2290   11.7190 C.3    30  VAL30       0.0019
      7  CG2       14.4630   22.2460   14.2080 C.3    30  VAL30       0.0019
      8  N         17.6690   16.1550   13.4010 N.3    33  PHE33      -0.1227
      9  CA        19.0300   16.3930   12.9100 C.3    33  PHE33       0.1736
     10  C         20.0860   16.2490   14.0360 C.2    33  PHE33       0.2595
     11  O         21.2580   15.9780   13.7570 O.2    33  PHE33      -0.2718
     12  CB        19.1660   17.7880   12.2470 C.3    33  PHE33       0.0547
     13  CG        18.4450   17.8380   10.9210 C.ar   33  PHE33      -0.0202
     14  CD1       17.1950   18.4450   10.8350 C.ar   33  PHE33      -0.0042
     15  CD2       18.9610   17.1670    9.8220 C.ar   33  PHE33      -0.0042
     16  CE1       16.4920   18.4300    9.6140 C.ar   33  PHE33      -0.0003
     17  CE2       18.2890   17.1440    8.6410 C.ar   33  PHE33      -0.0003
     18  CZ        17.0480   17.7460    8.5470 C.ar   33  PHE33      -0.0000
     19  N         19.6210   16.4530   15.2750 N.am   34  PHE34      -0.1976
     20  CA        20.4290   16.3530   16.4700 C.3    34  PHE34       0.1639
     21  C         20.4910   15.0450   17.1740 C.2    34  PHE34       0.2290
     22  O         21.1700   14.9550   18.2500 O.2    34  PHE34      -0.2864
     23  CB        19.9840   17.5290   17.4080 C.3    34  PHE34       0.0560
     24  CG        20.1430   18.8800   16.7370 C.ar   34  PHE34      -0.0200
     25  CD1       19.0540   19.5100   16.0620 C.ar   34  PHE34      -0.0042
     26  CD2       21.4360   19.4620   16.6670 C.ar   34  PHE34      -0.0042
     27  CE1       19.2450   20.7130   15.3750 C.ar   34  PHE34      -0.0003
     28  CE2       21.6190   20.6970   15.9130 C.ar   34  PHE34      -0.0003
     29  CZ        20.5010   21.2520   15.2960 C.ar   34  PHE34      -0.0000
     30  N         22.2350   12.3310   16.9920 N.3    36  ASN36      -0.1225
     31  CA        23.5040   11.7130   17.3900 C.3    36  ASN36       0.1785
     32  C         24.4910   12.8050   17.7740 C.2    36  ASN36       0.2598
     33  O         25.6960   12.5430   17.8120 O.2    36  ASN36      -0.2718
     34  CB        24.1120   10.8880   16.2460 C.3    36  ASN36       0.1169
     35  CG        23.2310    9.7350   15.8430 C.2    36  ASN36       0.2627
     36  OD1       22.7670    8.9850   16.6970 O.2    36  ASN36      -0.2716
     37  ND2       22.9630    9.6030   14.5330 N.am   36  ASN36      -0.0877
     38  N         24.0060   14.0050   18.1120 N.am   37  THR37      -0.1939
     39  CA        24.8910   15.1250   18.3980 C.3    37  THR37       0.2028
     40  C         25.3190   15.1950   19.8360 C.2    37  THR37       0.2642
     41  O         24.5130   14.9370   20.7410 O.2    37  THR37      -0.2714
     42  CB        24.2240   16.4380   17.9950 C.3    37  THR37       0.1808
     43  OG1       24.1170   16.4450   16.5690 O.3    37  THR37      -0.2208
     44  CG2       25.0980   17.6840   18.3750 C.3    37  THR37       0.0379
     45  N         26.6070   15.4590   20.0720 N.am   38  ASP38      -0.1971
     46  CA        27.0800   15.6350   21.4590 C.3    38  ASP38       0.1709
     47  C         26.5800   17.0690   21.8310 C.2    38  ASP38       0.2293
     48  O         27.1840   18.0820   21.3900 O.2    38  ASP38      -0.2864
     49  CB        28.6100   15.4820   21.4790 C.3    38  ASP38       0.1436
     50  CG        29.2630   16.0210   22.7710 C.2    38  ASP38       0.3671
     51  OD1       28.5860   16.6950   23.6200 O.co2  38  ASP38      -0.2456
     52  OD2       30.4800   15.7550   22.9360 O.co2  38  ASP38      -0.2456
     53  N         29.1640   19.6470   23.6240 N.3    41  HIS41      -0.1226
     54  CA        30.0370   20.2220   22.5970 C.3    41  HIS41       0.1752
     55  C         29.3460   21.2010   21.6830 C.2    41  HIS41       0.2595
     56  O         29.9030   22.3110   21.3400 O.2    41  HIS41      -0.2718
     57  CB        30.7660   19.1510   21.7570 C.3    41  HIS41       0.0759
     58  CG        31.8070   19.7230   20.8210 C.ar   41  HIS41       0.0818
     59  ND1       31.6300   19.7980   19.4520 N.ar   41  HIS41      -0.2268
     60  CD2       33.0240   20.2740   21.0750 C.ar   41  HIS41       0.1154
     61  CE1       32.7000   20.3470   18.8920 C.ar   41  HIS41       0.1986
     62  NE2       33.5620   20.6410   19.8540 N.ar   41  HIS41      -0.2212
     63  N         28.1580   20.8460   21.2120 N.am   42  GLN42      -0.1979
     64  CA        27.4450   21.7070   20.3120 C.3    42  GLN42       0.1601
     65  C         27.0300   23.0100   21.1020 C.2    42  GLN42       0.2287
     66  O         26.9320   24.1210   20.4770 O.2    42  GLN42      -0.2864
     67  CB        26.3010   20.9310   19.6660 C.3    42  GLN42       0.0394
     68  CG        25.1040   21.7510   19.0450 C.3    42  GLN42       0.0908
     69  CD        25.5220   22.3800   17.7120 C.2    42  GLN42       0.2608
     70  OE1       26.6550   22.0320   17.2050 O.2    42  GLN42      -0.2717
     71  NE2       24.6830   23.3270   17.1520 N.am   42  GLN42      -0.0878
     72  N         30.1660   25.2290   20.8890 N.3    45  GLN45      -0.1231
     73  CA        30.4000   25.7530   19.5540 C.3    45  GLN45       0.1698
     74  C         29.4120   26.7880   19.1860 C.2    45  GLN45       0.2592
     75  O         29.7870   27.8080   18.5700 O.2    45  GLN45      -0.2718
     76  CB        30.3760   24.6300   18.4700 C.3    45  GLN45       0.0381
     77  CG        31.5720   23.6670   18.6880 C.3    45  GLN45       0.0905
     78  CD        32.9030   24.4320   18.7120 C.2    45  GLN45       0.2608
     79  OE1       33.2060   25.1890   17.8340 O.2    45  GLN45      -0.2717
     80  NE2       33.6300   24.2850   19.7430 N.am   45  GLN45      -0.0878
     81  N         28.1310   26.5370   19.4790 N.am   46  GLN46      -0.1979
     82  CA        27.1070   27.4840   19.0610 C.3    46  GLN46       0.1601
     83  C         27.2000   28.7630   19.8870 C.2    46  GLN46       0.2287
     84  O         27.0020   29.8830   19.3650 O.2    46  GLN46      -0.2864
     85  CB        25.7480   26.8170   19.3360 C.3    46  GLN46       0.0394
     86  CG        24.6290   27.6520   18.8640 C.3    46  GLN46       0.0908
     87  CD        24.4300   27.5940   17.3150 C.2    46  GLN46       0.2608
     88  OE1       24.5830   26.5330   16.6480 O.2    46  GLN46      -0.2717
     89  NE2       24.1290   28.7110   16.7840 N.am   46  GLN46      -0.0878
     90  N         30.0340   30.6490   18.3610 N.3    49  PHE49      -0.1227
     91  CA        29.7210   31.1470   17.0030 C.3    49  PHE49       0.1736
     92  C         28.7930   32.3680   17.0420 C.2    49  PHE49       0.2595
     93  O         29.0640   33.4270   16.4300 O.2    49  PHE49      -0.2718
     94  CB        29.0340   30.0220   16.1840 C.3    49  PHE49       0.0547
     95  CG        28.8790   30.4640   14.7100 C.ar   49  PHE49      -0.0202
     96  CD1       30.0010   30.6100   13.9450 C.ar   49  PHE49      -0.0042
     97  CD2       27.6460   30.6570   14.1820 C.ar   49  PHE49      -0.0042
     98  CE1       29.9560   30.9670   12.5960 C.ar   49  PHE49      -0.0003
     99  CE2       27.5460   31.0320   12.8300 C.ar   49  PHE49      -0.0003
    100  CZ        28.7410   31.1540   12.0070 C.ar   49  PHE49      -0.0000
    101  N         27.6920   32.2670   17.8280 N.am   50  LEU50      -0.1980
    102  CA        26.8140   33.4000   17.9720 C.3    50  LEU50       0.1596
    103  C         27.4800   34.5700   18.6480 C.2    50  LEU50       0.2287
    104  O         27.2710   35.7300   18.3110 O.2    50  LEU50      -0.2864
    105  CB        25.5020   33.0170   18.6710 C.3    50  LEU50       0.0297
    106  CG        24.6870   31.9760   17.8670 C.3    50  LEU50       0.0022
    107  CD1       23.5360   31.5250   18.8440 C.3    50  LEU50       0.0001
    108  CD2       24.2350   32.4780   16.5050 C.3    50  LEU50       0.0001
    109  N         29.5410   36.1520   16.0010 N.3    53  LEU53      -0.1245
    110  CA        28.7710   36.7600   14.8650 C.3    53  LEU53       0.1561
    111  C         28.0940   38.0810   15.2820 C.2    53  LEU53       0.2260
    112  O         27.9650   39.0270   14.4830 O.2    53  LEU53      -0.2867
    113  CB        27.5910   35.8600   14.4860 C.3    53  LEU53       0.0270
    114  CG        27.3530   35.7130   13.0080 C.3    53  LEU53       0.0019
    115  CD1       28.6660   35.4200   12.0440 C.3    53  LEU53       0.0001
    116  CD2       26.6240   34.4260   12.9160 C.3    53  LEU53       0.0001
    117  N         35.6460   31.7210   18.2570 N.3    60  TYR60      -0.1241
    118  CA        35.0450   30.5980   17.5230 C.3    60  TYR60       0.1605
    119  C         36.1250   29.8690   16.7490 C.2    60  TYR60       0.2264
    120  O         36.8140   30.4690   15.8510 O.2    60  TYR60      -0.2867
    121  CB        33.9620   31.0850   16.5650 C.3    60  TYR60       0.0534
    122  CG        33.3500   29.9700   15.7720 C.ar   60  TYR60      -0.0201
    123  CD1       32.6210   28.9820   16.4560 C.ar   60  TYR60      -0.0009
    124  CD2       33.5740   29.8320   14.4070 C.ar   60  TYR60      -0.0009
    125  CE1       32.0660   27.8960   15.7930 C.ar   60  TYR60       0.0417
    126  CE2       33.0010   28.7210   13.6840 C.ar   60  TYR60       0.0417
    127  CZ        32.2720   27.7380   14.4340 C.ar   60  TYR60       0.1957
    128  OH        31.7650   26.7050   13.7060 O.3    60  TYR60      -0.2866
    129  N         35.4140   26.7190   15.4170 N.3    62  GLY62      -0.1210
    130  CA        34.7820   25.5760   14.6830 C.3    62  GLY62       0.1956
    131  C         34.7560   25.6320   13.1480 C.2    62  GLY62       0.2611
    132  O         35.3880   26.5210   12.5210 O.2    62  GLY62      -0.2717
    133  N         33.9540   24.7540   12.5300 N.am   63  LYS63      -0.1979
    134  CA        33.8860   24.6530   11.1350 C.3    63  LYS63       0.1596
    135  C         33.1320   25.8510   10.5370 C.2    63  LYS63       0.2287
    136  O         32.3380   26.4990   11.2010 O.2    63  LYS63      -0.2864
    137  CB        33.0530   23.4210   10.7480 C.3    63  LYS63       0.0298
    138  CG        33.8440   22.1080   11.0440 C.3    63  LYS63       0.0038
    139  CD        32.8560   20.8690   10.9490 C.3    63  LYS63       0.0206
    140  CE        33.5560   19.5030   11.3920 C.3    63  LYS63       0.1093
    141  NZ        32.8860   18.4220   10.5780 N.3    63  LYS63      -0.1314
    142  N         30.1860   27.4030    7.8430 N.3    65  MET65      -0.1245
    143  CA        28.8110   26.9680    7.8510 C.3    65  MET65       0.1570
    144  C         28.5370   26.0130    6.7080 C.2    65  MET65       0.2261
    145  O         27.5780   25.2430    6.7640 O.2    65  MET65      -0.2867
    146  CB        27.8470   28.1760    7.7940 C.3    65  MET65       0.0387
    147  CG        27.8420   29.0330    9.0840 C.3    65  MET65       0.0595
    148  SD        27.3120   28.0520   10.5280 S.3    65  MET65      -0.1393
    149  CE        28.8620   27.4560   11.2620 C.3    65  MET65       0.0692
    150  N         30.1100   22.6470    8.3490 N.3    68  ALA68      -0.1231
    151  CA        29.3070   22.2410    9.4990 C.3    68  ALA68       0.1694
    152  C         28.0610   21.4500    9.0730 C.2    68  ALA68       0.2592
    153  O         27.7110   20.4670    9.7190 O.2    68  ALA68      -0.2718
    154  CB        28.9160   23.4160   10.2950 C.3    68  ALA68       0.0304
    155  N         27.5030   21.7640    7.9140 N.am   69  HIS69      -0.1976
    156  CA        26.2180   21.1860    7.4990 C.3    69  HIS69       0.1656
    157  C         26.3660   20.3660    6.2430 C.2    69  HIS69       0.2291
    158  O         25.3410   20.0770    5.5460 O.2    69  HIS69      -0.2864
    159  CB        25.1430   22.3190    7.3430 C.3    69  HIS69       0.0771
    160  CG        25.0010   23.1110    8.6050 C.ar   69  HIS69       0.0820
    161  ND1       25.6740   24.2990    8.8070 N.ar   69  HIS69      -0.2267
    162  CD2       24.4080   22.8140    9.7820 C.ar   69  HIS69       0.1154
    163  CE1       25.3680   24.7900   10.0030 C.ar   69  HIS69       0.1986
    164  NE2       24.6540   23.8720   10.6340 N.ar   69  HIS69      -0.2212
    165  N         24.0200   17.2370    4.7470 N.3    72  MET72      -0.1245
    166  CA        22.6790   17.2740    5.3810 C.3    72  MET72       0.1570
    167  C         21.5930   17.6900    4.3350 C.2    72  MET72       0.2261
    168  O         20.4610   17.3320    4.4900 O.2    72  MET72      -0.2867
    169  CB        22.6800   18.2370    6.5380 C.3    72  MET72       0.0387
    170  CG        23.6010   17.7800    7.7370 C.3    72  MET72       0.0595
    171  SD        23.4670   18.9900    8.9750 S.3    72  MET72      -0.1393
    172  CE        24.8220   18.4370   10.0440 C.3    72  MET72       0.0692
    173  N         20.3090   20.4980    3.7220 N.3    74  LEU74      -0.1241
    174  CA        19.3170   21.2550    4.4610 C.3    74  LEU74       0.1601
    175  C         18.4450   22.0930    3.4940 C.2    74  LEU74       0.2264
    176  O         18.9290   22.5630    2.4310 O.2    74  LEU74      -0.2867
    177  CB        20.0120   22.2490    5.4200 C.3    74  LEU74       0.0490
    178  CG        20.1830   21.7090    6.8300 C.2    74  LEU74      -0.0420
    179  CD1       19.9510   20.4550    7.1630 C.2    74  LEU74      -0.0091
    180  CD2       21.5320   22.3330    7.4540 C.3    74  LEU74       0.0264
    181  N         14.0320   24.2620    7.0620 N.3    78  HIS78      -0.1226
    182  CA        14.8670   23.9350    8.2580 C.3    78  HIS78       0.1752
    183  C         15.4930   25.2430    8.7650 C.2    78  HIS78       0.2596
    184  O         15.4810   25.4980    9.9740 O.2    78  HIS78      -0.2718
    185  CB        15.9760   22.9740    7.8910 C.3    78  HIS78       0.0759
    186  CG        15.4640   21.6620    7.3470 C.ar   78  HIS78       0.0818
    187  ND1       14.5460   20.8540    8.0170 N.ar   78  HIS78      -0.2268
    188  CD2       15.7860   20.9940    6.2150 C.ar   78  HIS78       0.1154
    189  CE1       14.3070   19.7420    7.3000 C.ar   78  HIS78       0.1986
    190  NE2       15.0620   19.7990    6.2300 N.ar   78  HIS78      -0.2212
    191  N         15.9750   26.0980    7.8510 N.am   79  PHE79      -0.1976
    192  CA        16.5830   27.3410    8.3050 C.3    79  PHE79       0.1639
    193  C         15.5520   28.3060    8.9000 C.2    79  PHE79       0.2290
    194  O         15.8430   28.8790    9.9860 O.2    79  PHE79      -0.2864
    195  CB        17.3680   27.9740    7.1130 C.3    79  PHE79       0.0560
    196  CG        18.2330   29.1770    7.5400 C.ar   79  PHE79      -0.0200
    197  CD1       19.5930   29.0090    7.7550 C.ar   79  PHE79      -0.0042
    198  CD2       17.6610   30.4440    7.6790 C.ar   79  PHE79      -0.0042
    199  CE1       20.4020   30.0520    8.1420 C.ar   79  PHE79      -0.0003
    200  CE2       18.4410   31.5050    8.0060 C.ar   79  PHE79      -0.0003
    201  CZ        19.8300   31.3240    8.2700 C.ar   79  PHE79      -0.0000
    202  N         15.0530   27.2040   12.4760 N.3    82  ILE82      -0.1231
    203  CA        16.1180   27.6110   13.4160 C.3    82  ILE82       0.1692
    204  C         15.9180   29.0860   13.7570 C.2    82  ILE82       0.2591
    205  O         15.9940   29.4660   14.9590 O.2    82  ILE82      -0.2718
    206  CB        17.4900   27.3250   12.7920 C.3    82  ILE82       0.0266
    207  CG1       17.6670   25.8260   12.5900 C.3    82  ILE82       0.0019
    208  CG2       18.6700   28.0160   13.6700 C.3    82  ILE82       0.0020
    209  CD1       17.5130   24.9380   13.8370 C.3    82  ILE82       0.0001
    210  N         15.7070   29.9880   12.7940 N.am   83  ILE83      -0.1980
    211  CA        15.5180   31.4200   13.1040 C.3    83  ILE83       0.1595
    212  C         14.3170   31.6440   13.9830 C.2    83  ILE83       0.2287
    213  O         14.4070   32.4470   14.9350 O.2    83  ILE83      -0.2864
    214  CB        15.2650   32.2510   11.7870 C.3    83  ILE83       0.0276
    215  CG1       16.5210   32.1030   10.9370 C.3    83  ILE83       0.0022
    216  CG2       14.9570   33.7590   12.0940 C.3    83  ILE83       0.0022
    217  CD1       17.7810   32.8080   11.5670 C.3    83  ILE83       0.0001
    218  N         15.2470   30.6910   17.4980 N.3    86  LEU86      -0.1245
    219  CA        16.1610   31.6920   18.1700 C.3    86  LEU86       0.1561
    220  C         15.3210   32.9170   18.5080 C.2    86  LEU86       0.2260
    221  O         15.4660   33.4670   19.6120 O.2    86  LEU86      -0.2867
    222  CB        17.3300   32.0570   17.2600 C.3    86  LEU86       0.0270
    223  CG        18.3100   33.0860   17.8840 C.3    86  LEU86       0.0019
    224  CD1       18.8650   32.4180   19.1730 C.3    86  LEU86       0.0001
    225  CD2       19.3810   33.2320   16.8640 C.3    86  LEU86       0.0001
    226  N         22.4040   36.8540   11.1910 N.3   107  ILE107     -0.1245
    227  CA        22.4040   35.3830   11.0250 C.3   107  ILE107      0.1561
    228  C         21.8520   34.9460    9.6780 C.2   107  ILE107      0.2260
    229  O         22.3000   33.9980    9.0830 O.2   107  ILE107     -0.2867
    230  CB        21.5720   34.7180   12.1760 C.3   107  ILE107      0.0252
    231  CG1       22.3090   35.0810   13.4610 C.3   107  ILE107      0.0019
    232  CG2       21.4220   33.1760   11.9360 C.3   107  ILE107      0.0019
    233  CD1       21.4850   34.9000   14.7340 C.3   107  ILE107      0.0001
    234  N         23.9050   33.7480    6.6530 N.3   110  THR110     -0.1218
    235  CA        24.4970   32.3960    6.6010 C.3   110  THR110      0.1862
    236  C         23.6400   31.3890    5.8320 C.2   110  THR110      0.2287
    237  O         24.1060   30.2750    5.5570 O.2   110  THR110     -0.2866
    238  CB        24.7680   31.7930    8.0110 C.3   110  THR110      0.1770
    239  OG1       23.5340   31.5030    8.7260 O.3   110  THR110     -0.2211
    240  CG2       25.7050   32.6700    8.8010 C.3   110  THR110      0.0375
    241  N         24.7250   27.2360    4.0500 N.3   114  MET114     -0.1245
    242  CA        24.4470   25.8730    4.6280 C.3   114  MET114      0.1570
    243  C         23.3180   25.0940    3.9520 C.2   114  MET114      0.2261
    244  O         23.2030   23.9090    4.1640 O.2   114  MET114     -0.2867
    245  CB        24.1650   25.9820    6.1450 C.3   114  MET114      0.0387
    246  CG        22.9380   26.8710    6.4670 C.3   114  MET114      0.0595
    247  SD        22.6480   26.9160    8.2600 S.3   114  MET114     -0.1393
    248  CE        23.9340   28.0760    8.7780 C.3   114  MET114      0.0692
@<TRIPOS>BOND
     1   176   175    2
     2   175   174    1
     3   173   174    1
     4   243   244    2
     5   243   242    1
     6   241   242    1
     7   167   168    2
     8   167   166    1
     9   174   177    1
    10   242   245    1
    11   165   166    1
    12   166   169    1
    13   177   178    1
    14   158   157    2
    15   237   236    2
    16   236   235    1
    17   245   246    1
    18   188   190   ar
    19   188   186   ar
    20   190   189   ar
    21   157   156    1
    22   246   247    1
    23   169   170    1
    24   235   234    1
    25   235   238    1
    26   144   145    2
    27   144   143    1
    28   178   179    2
    29   178   180    1
    30   181   182    1
    31   195   196    1
    32   195   192    1
    33   189   187   ar
    34   159   156    1
    35   159   160    1
    36   186   185    1
    37   186   187   ar
    38   156   155    1
    39   196   198   ar
    40   196   197   ar
    41   198   200   ar
    42   170   171    1
    43   197   199   ar
    44   146   143    1
    45   146   147    1
    46   142   143    1
    47   191   192    1
    48   191   183   am
    49   185   182    1
    50   155   152   am
    51   200   201   ar
    52   238   239    1
    53   238   240    1
    54   199   201   ar
    55   182   183    1
    56   247   248    1
    57   192   193    1
    58   150   151    1
    59    18    17   ar
    60    18    16   ar
    61   160   161   ar
    62   160   162   ar
    63    17    15   ar
    64   183   184    2
    65   161   163   ar
    66   193   194    2
    67   171   172    1
    68   152   151    1
    69   152   153    2
    70   229   228    2
    71   147   148    1
    72   151   154    1
    73    16    14   ar
    74   228   227    1
    75   162   164   ar
    76    15    13   ar
    77   163   164   ar
    78   148   149    1
    79   135   134    1
    80   135   136    2
    81   141   140    1
    82   137   138    1
    83   137   134    1
    84    14    13   ar
    85    13    12    1
    86   215   217    1
    87   215   214    1
    88   139   138    1
    89   139   140    1
    90   227   226    1
    91   227   230    1
    92   134   133    1
    93     6     5    1
    94   214   216    1
    95   214   211    1
    96   232   230    1
    97   100    98   ar
    98   100    99   ar
    99   115   114    1
   100   230   231    1
   101    12     9    1
   102   202   203    1
   103   132   131    2
   104   133   131   am
   105   207   206    1
   106   207   209    1
   107    98    96   ar
   108   206   203    1
   109   206   208    1
   110   210   211    1
   111   210   204   am
   112    99    97   ar
   113     9     8    1
   114     9    10    1
   115   116   114    1
   116     1     2    1
   117     2     5    1
   118     2     3    1
   119   114   113    1
   120     5     7    1
   121   211   212    1
   122   131   130    1
   123   203   204    1
   124   231   233    1
   125   126   124   ar
   126   126   127   ar
   127   128   127    1
   128    11    10    2
   129   204   205    2
   130    96    95   ar
   131   212   213    2
   132    10    19   am
   133     4     3    2
   134    97    95   ar
   135   124   122   ar
   136   127   125   ar
   137   112   111    2
   138   113   110    1
   139    37    35   am
   140   130   129    1
   141    95    94    1
   142   110   111    1
   143   110   109    1
   144    19    20    1
   145    29    27   ar
   146    29    28   ar
   147    27    25   ar
   148   122   123   ar
   149   122   121    1
   150   125   123   ar
   151    35    34    1
   152    35    36    2
   153   120   119    2
   154    28    26   ar
   155    25    24   ar
   156    94    91    1
   157    34    31    1
   158    93    92    2
   159    20    21    1
   160    20    23    1
   161   108   106    1
   162   121   118    1
   163    43    42    1
   164    88    87    2
   165    26    24   ar
   166    24    23    1
   167   119   118    1
   168    89    87   am
   169   225   223    1
   170    30    31    1
   171    91    92    1
   172    91    90    1
   173    92   101   am
   174    71    69   am
   175    21    22    2
   176    70    69    2
   177   222   223    1
   178   222   219    1
   179    87    86    1
   180    31    32    1
   181   218   219    1
   182   118   117    1
   183    69    68    1
   184    32    33    2
   185    32    38   am
   186   101   102    1
   187    79    78    2
   188   106   105    1
   189   106   107    1
   190   223   224    1
   191   102   103    1
   192   102   105    1
   193    42    44    1
   194    42    39    1
   195    38    39    1
   196   219   220    1
   197   104   103    2
   198    39    40    1
   199    76    77    1
   200    76    73    1
   201   220   221    2
   202    75    74    2
   203    77    78    1
   204    78    80   am
   205    86    85    1
   206    61    59   ar
   207    61    62   ar
   208    68    67    1
   209    82    85    1
   210    82    81    1
   211    82    83    1
   212    74    81   am
   213    74    73    1
   214    84    83    2
   215    59    58   ar
   216    73    72    1
   217    67    64    1
   218    40    45   am
   219    40    41    2
   220    62    60   ar
   221    45    46    1
   222    64    65    1
   223    64    63    1
   224    66    65    2
   225    58    60   ar
   226    58    57    1
   227    63    55   am
   228    56    55    2
   229    48    47    2
   230    46    49    1
   231    46    47    1
   232    49    50    1
   233    55    54    1
   234    57    54    1
   235    54    53    1
   236    50    52   ar
   237    50    51   ar
