@<TRIPOS>MOLECULE
tmp/3aqaA00.pdb
 141 140 0 0 0
SMALL
GASTEIGER

@<TRIPOS>ATOM
      1  N         12.6010  -10.4420   23.7730 N.3    24  TRP24      -0.1228
      2  CA        11.3180   -9.8330   24.0770 C.3    24  TRP24       0.1722
      3  C         11.2130   -8.7620   25.1650 C.2    24  TRP24       0.2437
      4  O         10.4820   -7.7970   24.9910 O.2    24  TRP24      -0.2733
      5  CB        10.2420  -10.8980   24.3030 C.3    24  TRP24       0.0563
      6  CG        10.4070  -11.7610   25.4890 C.ar   24  TRP24       0.0003
      7  CD1       11.1040  -12.9450   25.5630 C.ar   24  TRP24       0.0946
      8  CD2        9.7950  -11.5740   26.7630 C.ar   24  TRP24       0.0152
      9  NE1       10.9470  -13.4990   26.8010 N.ar   24  TRP24      -0.2442
     10  CE2       10.1550  -12.6790   27.5620 C.ar   24  TRP24       0.0810
     11  CE3        8.9760  -10.5760   27.3090 C.ar   24  TRP24       0.0012
     12  CZ2        9.7190  -12.8220   28.8830 C.ar   24  TRP24       0.0191
     13  CZ3        8.5390  -10.7110   28.6170 C.ar   24  TRP24       0.0001
     14  CH2        8.9160  -11.8300   29.3930 C.ar   24  TRP24       0.0015
     15  N         11.9440   -8.8880   26.2870 N.am   25  PRO25      -0.2718
     16  CA        11.7620   -7.7980   27.2660 C.3    25  PRO25       0.1535
     17  C         12.4320   -6.5020   26.8140 C.2    25  PRO25       0.2598
     18  O         12.1680   -5.4250   27.3500 O.2    25  PRO25      -0.2715
     19  CB        12.4180   -8.3440   28.5320 C.3    25  PRO25       0.0310
     20  CG        12.4580   -9.8650   28.2870 C.3    25  PRO25       0.0237
     21  CD        12.8010   -9.9460   26.8320 C.3    25  PRO25       0.0939
     22  N         13.2900   -6.6130   25.8110 N.am   26  PHE26      -0.1974
     23  CA        14.0330   -5.4630   25.3230 C.3    26  PHE26       0.1639
     24  C         13.5380   -4.7730   24.0510 C.2    26  PHE26       0.2290
     25  O         14.0580   -3.7370   23.6840 O.2    26  PHE26      -0.2864
     26  CB        15.4940   -5.8680   25.1410 C.3    26  PHE26       0.0560
     27  CG        16.1170   -6.3880   26.3890 C.ar   26  PHE26      -0.0200
     28  CD1       16.1360   -7.7580   26.6570 C.ar   26  PHE26      -0.0042
     29  CD2       16.6430   -5.5060   27.3280 C.ar   26  PHE26      -0.0042
     30  CE1       16.6770   -8.2440   27.8520 C.ar   26  PHE26      -0.0003
     31  CE2       17.1760   -5.9740   28.5190 C.ar   26  PHE26      -0.0003
     32  CZ        17.1970   -7.3460   28.7860 C.ar   26  PHE26      -0.0000
     33  N         10.8680   -3.0960   23.5290 N.3    28  GLN28      -0.1231
     34  CA        10.1280   -1.8540   23.7110 C.3    28  GLN28       0.1683
     35  C         10.5490   -1.2560   25.0370 C.2    28  GLN28       0.2434
     36  O         11.1180   -1.9390   25.8780 O.2    28  GLN28      -0.2733
     37  CB         8.6010   -2.0860   23.6930 C.3    28  GLN28       0.0380
     38  CG         8.0740   -2.8970   24.8560 C.3    28  GLN28       0.0905
     39  CD         8.6430   -4.3250   24.8700 C.2    28  GLN28       0.2608
     40  OE1        9.1240   -4.8210   25.9080 O.2    28  GLN28      -0.2717
     41  NE2        8.5910   -4.9880   23.7130 N.am   28  GLN28      -0.0878
     42  N         10.2810    0.0390   25.2330 N.am   29  PRO29      -0.2718
     43  CA        10.6450    0.7080   26.4750 C.3    29  PRO29       0.1535
     44  C         10.1640   -0.0580   27.7020 C.2    29  PRO29       0.2598
     45  O          9.1750   -0.7930   27.6480 O.2    29  PRO29      -0.2715
     46  CB         9.9420    2.0590   26.3510 C.3    29  PRO29       0.0310
     47  CG         9.9160    2.2940   24.8920 C.3    29  PRO29       0.0237
     48  CD         9.5450    0.9510   24.3430 C.3    29  PRO29       0.0939
     49  N         10.8760    0.1080   28.8070 N.am   30  VAL30      -0.1978
     50  CA        10.4700   -0.5200   30.0430 C.3    30  VAL30       0.1596
     51  C          9.2100    0.2380   30.4790 C.2    30  VAL30       0.2287
     52  O          9.1640    1.4750   30.4090 O.2    30  VAL30      -0.2864
     53  CB        11.5620   -0.3640   31.1300 C.3    30  VAL30       0.0276
     54  CG1       11.0480   -0.8800   32.4760 C.3    30  VAL30       0.0022
     55  CG2       12.8290   -1.1290   30.7020 C.3    30  VAL30       0.0022
     56  N          4.9200   -3.1180   34.7310 N.3    35  LEU35      -0.1245
     57  CA         5.7490   -4.1170   35.3860 C.3    35  LEU35       0.1561
     58  C          5.8810   -3.9230   36.8920 C.2    35  LEU35       0.2260
     59  O          6.5040   -4.7380   37.5800 O.2    35  LEU35      -0.2867
     60  CB         7.1310   -4.1770   34.7120 C.3    35  LEU35       0.0270
     61  CG         7.1900   -4.5750   33.2210 C.3    35  LEU35       0.0019
     62  CD1        6.4170   -5.8720   32.9910 C.3    35  LEU35       0.0001
     63  CD2        6.6120   -3.4880   32.3610 C.3    35  LEU35       0.0001
     64  N          7.3790   -1.3170   38.8140 N.3    37  LEU37      -0.1245
     65  CA         8.6370   -0.8260   39.3800 C.3    37  LEU37       0.1561
     66  C          8.5060    0.6980   39.4230 C.2    37  LEU37       0.2260
     67  O          9.0280    1.3950   38.5570 O.2    37  LEU37      -0.2867
     68  CB         9.8270   -1.2080   38.4910 C.3    37  LEU37       0.0270
     69  CG        10.0030   -2.6150   37.9110 C.3    37  LEU37       0.0019
     70  CD1        9.1720   -3.6010   38.6920 C.3    37  LEU37       0.0001
     71  CD2        9.6200   -2.6250   36.4410 C.3    37  LEU37       0.0001
     72  N         11.7530    2.7100   39.0630 N.3    40  TYR40      -0.1241
     73  CA        12.6120    2.5150   37.9060 C.3    40  TYR40       0.1605
     74  C         13.2220    3.8130   37.3710 C.2    40  TYR40       0.2264
     75  O         14.4460    3.9310   37.2500 O.2    40  TYR40      -0.2867
     76  CB        11.8500    1.8180   36.7800 C.3    40  TYR40       0.0534
     77  CG        12.7510    1.4840   35.6040 C.ar   40  TYR40      -0.0201
     78  CD1       13.6340    0.3910   35.6560 C.ar   40  TYR40      -0.0009
     79  CD2       12.7530    2.2770   34.4490 C.ar   40  TYR40      -0.0009
     80  CE1       14.4910    0.1040   34.5880 C.ar   40  TYR40       0.0417
     81  CE2       13.5970    1.9950   33.3770 C.ar   40  TYR40       0.0417
     82  CZ        14.4680    0.9020   33.4560 C.ar   40  TYR40       0.1957
     83  OH        15.3150    0.6210   32.4090 O.3    40  TYR40      -0.2866
     84  N         21.6610   -0.3640   31.9520 N.3    74  ASN74      -0.1225
     85  CA        20.4830   -0.0400   32.7590 C.3    74  ASN74       0.1785
     86  C         19.9500   -1.2520   33.4940 C.2    74  ASN74       0.2597
     87  O         19.5450   -1.1710   34.6580 O.2    74  ASN74      -0.2718
     88  CB        19.3660    0.5220   31.8780 C.3    74  ASN74       0.1169
     89  CG        19.6620    1.9310   31.4480 C.2    74  ASN74       0.2627
     90  OD1       20.4920    2.5870   32.0620 O.2    74  ASN74      -0.2716
     91  ND2       19.0020    2.4070   30.4030 N.am   74  ASN74      -0.0877
     92  N         19.9560   -2.3770   32.7960 N.am   75  CYS75      -0.1970
     93  CA        19.4730   -3.6220   33.3370 C.3    75  CYS75       0.1712
     94  C         20.3500   -4.1450   34.4760 C.2    75  CYS75       0.2296
     95  O         19.8400   -4.5910   35.5010 O.2    75  CYS75      -0.2864
     96  CB        19.3590   -4.6260   32.1740 C.3    75  CYS75       0.0983
     97  SG        18.6660   -6.2270   32.5560 S.3    75  CYS75      -0.0798
     98  N         19.8580   -1.4940   37.6300 N.3    78  TYR78      -0.1227
     99  CA        18.5620   -1.5430   38.3080 C.3    78  TYR78       0.1736
    100  C         18.1080   -2.8420   38.9650 C.2    78  TYR78       0.2595
    101  O         17.5830   -2.8270   40.0770 O.2    78  TYR78      -0.2718
    102  CB        17.4520   -1.1250   37.3450 C.3    78  TYR78       0.0548
    103  CG        16.0760   -1.2360   37.9550 C.ar   78  TYR78      -0.0200
    104  CD1       15.6310   -0.2870   38.8800 C.ar   78  TYR78      -0.0009
    105  CD2       15.2330   -2.3140   37.6470 C.ar   78  TYR78      -0.0009
    106  CE1       14.3980   -0.3980   39.4840 C.ar   78  TYR78       0.0417
    107  CE2       13.9950   -2.4350   38.2480 C.ar   78  TYR78       0.0417
    108  CZ        13.5830   -1.4720   39.1680 C.ar   78  TYR78       0.1957
    109  OH        12.3600   -1.5670   39.7780 O.3    78  TYR78      -0.2866
    110  N         18.2760   -3.9600   38.2740 N.am   79  ASN79      -0.1974
    111  CA        17.8050   -5.2390   38.8060 C.3    79  ASN79       0.1688
    112  C         18.6830   -5.9150   39.8460 C.2    79  ASN79       0.2292
    113  O         19.8600   -5.6070   39.9630 O.2    79  ASN79      -0.2864
    114  CB        17.5820   -6.2010   37.6610 C.3    79  ASN79       0.1181
    115  CG        16.5530   -5.6970   36.6920 C.2    79  ASN79       0.2629
    116  OD1       15.3530   -5.7340   36.9720 O.2    79  ASN79      -0.2716
    117  ND2       17.0120   -5.2030   35.5430 N.am   79  ASN79      -0.0877
    118  N         18.1420  -11.8040   39.3370 N.3    83  ASP83      -0.1225
    119  CA        17.0250  -11.7770   38.3750 C.3    83  ASP83       0.1805
    120  C         17.3550  -12.4220   37.0520 C.2    83  ASP83       0.2598
    121  O         18.4610  -12.2830   36.5590 O.2    83  ASP83      -0.2718
    122  CB        16.5590  -10.3420   38.0860 C.3    83  ASP83       0.1424
    123  CG        15.9680   -9.6590   39.3050 C.2    83  ASP83       0.3668
    124  OD1       15.2930  -10.3570   40.0930 O.co2  83  ASP83      -0.2456
    125  OD2       16.1730   -8.4290   39.4600 O.co2  83  ASP83      -0.2456
    126  N         16.3900  -13.1240   36.4670 N.am   84  ASP84      -0.1960
    127  CA        16.6130  -13.7610   35.1710 C.3    84  ASP84       0.1840
    128  C         16.9750  -12.7260   34.1000 C.2    84  ASP84       0.2621
    129  O         17.7850  -12.9940   33.2100 O.2    84  ASP84      -0.2715
    130  CB        15.3590  -14.5210   34.7300 C.3    84  ASP84       0.1450
    131  CG        15.0760  -15.7610   35.5880 C.2    84  ASP84       0.3671
    132  OD1       15.9720  -16.2450   36.3110 O.co2  84  ASP84      -0.2456
    133  OD2       13.9480  -16.2630   35.5140 O.co2  84  ASP84      -0.2456
    134  N         16.3630  -11.5490   34.1870 N.am   85  ILE85      -0.1977
    135  CA        16.6040  -10.4740   33.2240 C.3    85  ILE85       0.1596
    136  C         18.1140  -10.1320   33.0780 C.2    85  ILE85       0.2287
    137  O         18.5950   -9.8690   31.9820 O.2    85  ILE85      -0.2864
    138  CB        15.7960   -9.2100   33.6220 C.3    85  ILE85       0.0276
    139  CG1       15.8360   -8.1720   32.4940 C.3    85  ILE85       0.0022
    140  CG2       16.3410   -8.6380   34.9060 C.3    85  ILE85       0.0022
    141  CD1       14.9940   -8.5600   31.2780 C.3    85  ILE85       0.0001
@<TRIPOS>BOND
     1    33    34    1
     2    25    24    2
     3    37    34    1
     4    37    38    1
     5    34    35    1
     6    41    39   am
     7     1     2    1
     8    24    23    1
     9     2     5    1
    10     2     3    1
    11     5     6    1
    12    48    47    1
    13    48    42    1
    14    38    39    1
    15    39    40    2
    16    47    46    1
    17     4     3    2
    18    35    42   am
    19    35    36    2
    20    26    23    1
    21    26    27    1
    22     3    15   am
    23    42    43    1
    24    23    22    1
    25     6     7   ar
    26     6     8   ar
    27     7     9   ar
    28    22    17   am
    29    15    21    1
    30    15    16    1
    31    46    43    1
    32    27    28   ar
    33    27    29   ar
    34    43    44    1
    35    28    30   ar
    36     8    11   ar
    37     8    10   ar
    38     9    10   ar
    39    17    16    1
    40    17    18    2
    41    21    20    1
    42    16    19    1
    43    11    13   ar
    44    29    31   ar
    45    10    12   ar
    46    45    44    2
    47    44    49   am
    48    30    32   ar
    49    20    19    1
    50    31    32   ar
    51    13    14   ar
    52    49    50    1
    53    12    14   ar
    54    50    51    1
    55    50    53    1
    56    91    89   am
    57    52    51    2
    58    55    53    1
    59    53    54    1
    60   141   139    1
    61    89    88    1
    62    89    90    2
    63    88    85    1
    64    84    85    1
    65   137   136    2
    66    96    97    1
    67    96    93    1
    68    63    61    1
    69    83    82    1
    70   139   138    1
    71    85    86    1
    72    92    93    1
    73    92    86   am
    74    62    61    1
    75   136   135    1
    76   129   128    2
    77    61    60    1
    78   135   138    1
    79   135   134    1
    80    93    94    1
    81    81    82   ar
    82    81    79   ar
    83    82    80   ar
    84    86    87    2
    85   138   140    1
    86   128   134   am
    87   128   127    1
    88    79    77   ar
    89    94    95    2
    90    80    78   ar
    91    60    57    1
    92   130   127    1
    93   130   131    1
    94    56    57    1
    95   127   126    1
    96    57    58    1
    97   133   131   ar
    98   117   115   am
    99   131   132   ar
   100    77    78   ar
   101    77    76    1
   102    71    69    1
   103   126   120   am
   104   121   120    2
   105   115   116    2
   106   115   114    1
   107    76    73    1
   108    58    59    2
   109   120   119    1
   110    75    74    2
   111   102   103    1
   112   102    99    1
   113    74    73    1
   114    98    99    1
   115   105   103   ar
   116   105   107   ar
   117   114   111    1
   118    73    72    1
   119    69    68    1
   120    69    70    1
   121   103   104   ar
   122   122   119    1
   123   122   123    1
   124   107   108   ar
   125   110   111    1
   126   110   100   am
   127    99   100    1
   128   119   118    1
   129    68    65    1
   130    67    66    2
   131   111   112    1
   132    64    65    1
   133   104   106   ar
   134   100   101    2
   135   108   106   ar
   136   108   109    1
   137   123   125   ar
   138   123   124   ar
   139    65    66    1
   140   112   113    2
