@<TRIPOS>MOLECULE
tmp/3aqcD00.pdb
 205 189 0 0 0
SMALL
GASTEIGER

@<TRIPOS>ATOM
      1  N        109.2620   58.8270   94.8310 N.3    76  VAL76      -0.1245
      2  CA       109.8010   59.7100   93.8050 C.3    76  VAL76       0.1561
      3  C        109.8500   59.0050   92.4530 C.2    76  VAL76       0.2260
      4  O        109.5410   59.6000   91.4220 O.2    76  VAL76      -0.2867
      5  CB       111.2000   60.2240   94.1720 C.3    76  VAL76       0.0252
      6  CG1      111.9530   60.6560   92.9200 C.3    76  VAL76       0.0019
      7  CG2      111.0940   61.3670   95.1670 C.3    76  VAL76       0.0019
      8  N        106.3340   58.7820   91.0100 N.3    79  ALA79      -0.1231
      9  CA       105.9650   60.1080   90.5370 C.3    79  ALA79       0.1694
     10  C        106.4900   60.3570   89.1260 C.2    79  ALA79       0.2593
     11  O        105.7680   60.8680   88.2620 O.2    79  ALA79      -0.2718
     12  CB       106.4960   61.1660   91.4890 C.3    79  ALA79       0.0304
     13  N        107.7480   59.9910   88.8950 N.am   80  SER80      -0.1938
     14  CA       108.3900   60.2400   87.6110 C.3    80  SER80       0.2055
     15  C        107.7340   59.4400   86.4940 C.2    80  SER80       0.2642
     16  O        107.6940   59.8850   85.3490 O.2    80  SER80      -0.2714
     17  CB       109.8870   59.9220   87.6800 C.3    80  SER80       0.2130
     18  OG       110.1170   58.5260   87.6820 O.3    80  SER80      -0.2179
     19  N        107.2210   58.2600   86.8310 N.am   81  LEU81      -0.1977
     20  CA       106.5790   57.3890   85.8500 C.3    81  LEU81       0.1596
     21  C        105.2110   57.9180   85.4120 C.2    81  LEU81       0.2287
     22  O        104.8990   57.9420   84.2220 O.2    81  LEU81      -0.2864
     23  CB       106.4500   55.9610   86.3950 C.3    81  LEU81       0.0297
     24  CG       107.5220   54.9200   86.0270 C.3    81  LEU81       0.0022
     25  CD1      108.9260   55.5170   85.9650 C.3    81  LEU81       0.0001
     26  CD2      107.4780   53.7320   86.9890 C.3    81  LEU81       0.0001
     27  N        104.1130   60.9780   85.4980 N.3    83  HIS83      -0.1226
     28  CA       104.3760   62.1690   84.6890 C.3    83  HIS83       0.1752
     29  C        104.9670   61.8160   83.3260 C.2    83  HIS83       0.2596
     30  O        104.5880   62.3940   82.3070 O.2    83  HIS83      -0.2718
     31  CB       105.3160   63.1260   85.4250 C.3    83  HIS83       0.0759
     32  CG       104.6260   64.0030   86.4220 C.ar   83  HIS83       0.0818
     33  ND1      105.2460   65.0760   87.0230 N.ar   83  HIS83      -0.2268
     34  CD2      103.3650   63.9730   86.9130 C.ar   83  HIS83       0.1154
     35  CE1      104.4000   65.6610   87.8530 C.ar   83  HIS83       0.1986
     36  NE2      103.2520   65.0110   87.8030 N.ar   83  HIS83      -0.2212
     37  N        105.9000   60.8690   83.3100 N.am   84  ASP84      -0.1960
     38  CA       106.5580   60.4750   82.0720 C.3    84  ASP84       0.1840
     39  C        105.5840   59.8010   81.1140 C.2    84  ASP84       0.2622
     40  O        105.6320   60.0230   79.9040 O.2    84  ASP84      -0.2715
     41  CB       107.7350   59.5410   82.3550 C.3    84  ASP84       0.1450
     42  CG       108.4240   59.0700   81.0860 C.2    84  ASP84       0.3671
     43  OD1      108.0720   57.9860   80.5820 O.co2  84  ASP84      -0.2456
     44  OD2      109.3130   59.7860   80.5820 O.co2  84  ASP84      -0.2456
     45  N        104.7050   58.9680   81.6570 N.am   85  ASP85      -0.1971
     46  CA       103.7400   58.2570   80.8320 C.3    85  ASP85       0.1709
     47  C        102.7570   59.2160   80.1710 C.2    85  ASP85       0.2293
     48  O        102.3520   59.0060   79.0290 O.2    85  ASP85      -0.2864
     49  CB       103.0060   57.1970   81.6540 C.3    85  ASP85       0.1436
     50  CG       103.8450   55.9490   81.8670 C.2    85  ASP85       0.3671
     51  OD1      104.7730   55.7150   81.0640 O.co2  85  ASP85      -0.2456
     52  OD2      103.5750   55.1990   82.8310 O.co2  85  ASP85      -0.2456
     53  N        103.4480   62.5090   79.5970 N.3    87  ILE87      -0.1231
     54  CA       104.2650   63.2380   78.6410 C.3    87  ILE87       0.1692
     55  C        104.4950   62.4230   77.3710 C.2    87  ILE87       0.2592
     56  O        104.3620   62.9390   76.2660 O.2    87  ILE87      -0.2718
     57  CB       105.6280   63.6090   79.2520 C.3    87  ILE87       0.0266
     58  CG1      105.4520   64.6920   80.3190 C.3    87  ILE87       0.0019
     59  CG2      106.5790   64.0740   78.1730 C.3    87  ILE87       0.0020
     60  CD1      106.6570   64.8630   81.2290 C.3    87  ILE87       0.0001
     61  N        104.8260   61.1470   77.5380 N.am   88  ASP88      -0.1974
     62  CA       105.2260   60.2970   76.4170 C.3    88  ASP88       0.1709
     63  C        104.0510   59.6650   75.6750 C.2    88  ASP88       0.2293
     64  O        104.2350   59.0430   74.6320 O.2    88  ASP88      -0.2864
     65  CB       106.2070   59.2170   76.8850 C.3    88  ASP88       0.1436
     66  CG       107.5390   59.7950   77.3280 C.2    88  ASP88       0.3671
     67  OD1      107.8640   60.9230   76.9070 O.co2  88  ASP88      -0.2456
     68  OD2      108.2680   59.1270   78.0960 O.co2  88  ASP88      -0.2456
     69  N        102.1310   57.1620   76.7450 N.3    90  SER90      -0.1217
     70  CA       102.0200   55.7310   76.9690 C.3    90  SER90       0.1889
     71  C        100.6760   55.4370   77.6210 C.2    90  SER90       0.2288
     72  O        100.4280   55.8350   78.7570 O.2    90  SER90      -0.2866
     73  CB       103.1600   55.2320   77.8510 C.3    90  SER90       0.2089
     74  OG       104.4150   55.5150   77.2590 O.3    90  SER90      -0.2183
     75  N        101.3420   50.6770   81.1470 N.3    93  ARG93      -0.1245
     76  CA       102.6280   50.3380   81.7490 C.3    93  ARG93       0.1563
     77  C        102.5680   48.9790   82.4450 C.2    93  ARG93       0.2260
     78  O        101.8760   48.8120   83.4470 O.2    93  ARG93      -0.2867
     79  CB       103.0900   51.4180   82.7290 C.3    93  ARG93       0.0307
     80  CG       104.5120   51.2030   83.2130 C.3    93  ARG93       0.0489
     81  CD       105.1070   52.4360   83.8750 C.3    93  ARG93       0.2205
     82  NE       106.5440   52.4920   83.6300 N.pl3  93  ARG93      -0.0865
     83  CZ       107.1430   53.4160   82.8850 C.cat  93  ARG93       0.5346
     84  NH1      106.4310   54.3910   82.3380 N.pl3  93  ARG93       0.1354
     85  NH2      108.4560   53.3760   82.7040 N.pl3  93  ARG93       0.1354
     86  N        102.6410   65.0650   91.4910 N.3   113  HIS113     -0.1241
     87  CA       103.0670   66.0610   92.4690 C.3   113  HIS113      0.1621
     88  C        102.7340   65.6520   93.9050 C.2   113  HIS113      0.2264
     89  O        103.4690   65.9730   94.8400 O.2   113  HIS113     -0.2867
     90  CB       102.4750   67.4350   92.1400 C.3   113  HIS113      0.0745
     91  CG       103.1440   68.1190   90.9880 C.ar  113  HIS113      0.0817
     92  ND1      102.4390   68.7220   89.9670 N.ar  113  HIS113     -0.2268
     93  CD2      104.4540   68.2890   90.6920 C.ar  113  HIS113      0.1154
     94  CE1      103.2880   69.2400   89.0960 C.ar  113  HIS113      0.1986
     95  NE2      104.5170   68.9910   89.5120 N.ar  113  HIS113     -0.2212
     96  N        105.3410   63.0680   94.8480 N.3   116  LEU116     -0.1245
     97  CA       106.5750   63.8030   95.0910 C.3   116  LEU116      0.1561
     98  C        106.5190   64.5350   96.4280 C.2   116  LEU116      0.2260
     99  O        107.5030   64.5760   97.1630 O.2   116  LEU116     -0.2867
    100  CB       106.8340   64.7870   93.9480 C.3   116  LEU116      0.0270
    101  CG       108.0870   65.6710   93.9700 C.3   116  LEU116      0.0019
    102  CD1      107.8320   66.9290   94.7770 C.3   116  LEU116      0.0001
    103  CD2      109.3140   64.9160   94.4920 C.3   116  LEU116      0.0001
    104  N        117.2670   64.9080   92.1710 N.3   139  ILE139     -0.1245
    105  CA       116.0030   65.2060   91.4950 C.3   139  ILE139      0.1561
    106  C        116.1670   66.3210   90.4530 C.2   139  ILE139      0.2260
    107  O        115.6350   66.2260   89.3430 O.2   139  ILE139     -0.2867
    108  CB       114.8940   65.5580   92.5130 C.3   139  ILE139      0.0252
    109  CG1      114.6360   64.3650   93.4340 C.3   139  ILE139      0.0019
    110  CG2      113.6160   65.9610   91.8020 C.3   139  ILE139      0.0019
    111  CD1      113.8850   64.7090   94.6920 C.3   139  ILE139      0.0001
    112  N        117.8860   64.7870   87.3910 N.3   142  VAL142     -0.1231
    113  CA       116.9820   63.9620   86.6000 C.3   142  VAL142      0.1692
    114  C        116.1380   64.8310   85.6720 C.2   142  VAL142      0.2592
    115  O        115.9300   64.4920   84.5080 O.2   142  VAL142     -0.2718
    116  CB       116.0590   63.1130   87.4890 C.3   142  VAL142      0.0266
    117  CG1      114.9920   62.4290   86.6430 C.3   142  VAL142      0.0020
    118  CG2      116.8660   62.0890   88.2630 C.3   142  VAL142      0.0020
    119  N        115.6620   65.9570   86.1930 N.am  143  CYS143     -0.1970
    120  CA       114.9020   66.9090   85.3930 C.3   143  CYS143      0.1712
    121  C        115.7500   67.4880   84.2650 C.2   143  CYS143      0.2296
    122  O        115.3250   67.5080   83.1070 O.2   143  CYS143     -0.2864
    123  CB       114.3570   68.0350   86.2700 C.3   143  CYS143      0.0983
    124  SG       113.0460   67.5190   87.4040 S.3   143  CYS143     -0.0798
    125  N        116.0340   65.2670   81.4610 N.3   146  GLU146     -0.1245
    126  CA       114.7490   65.1680   80.7890 C.3   146  GLU146      0.1567
    127  C        114.5750   66.3480   79.8270 C.2   146  GLU146      0.2260
    128  O        114.0970   66.1830   78.7010 O.2   146  GLU146     -0.2867
    129  CB       113.6230   65.1350   81.8210 C.3   146  GLU146      0.0388
    130  CG       112.4500   64.2620   81.4310 C.3   146  GLU146      0.1160
    131  CD       112.8390   62.8130   81.2290 C.2   146  GLU146      0.3649
    132  OE1      113.6950   62.3070   81.9870 O.co2 146  GLU146     -0.2457
    133  OE2      112.2790   62.1780   80.3090 O.co2 146  GLU146     -0.2457
    134  N        116.6710   65.8120   76.7760 N.3   149  GLN149     -0.1245
    135  CA       116.1490   64.7370   75.9540 C.3   149  GLN149      0.1566
    136  C        115.1960   65.2540   74.8800 C.2   149  GLN149      0.2260
    137  O        115.2020   64.7610   73.7540 O.2   149  GLN149     -0.2867
    138  CB       115.4490   63.6940   76.8190 C.3   149  GLN149      0.0367
    139  CG       115.3790   62.3310   76.1710 C.3   149  GLN149      0.0905
    140  CD       114.1570   61.5480   76.5890 C.2   149  GLN149      0.2608
    141  OE1      114.2610   60.4000   77.0140 O.2   149  GLN149     -0.2717
    142  NE2      112.9860   62.1620   76.4610 N.am  149  GLN149     -0.0878
    143  N        123.1720   61.9140   79.5000 N.3   166  ARG166     -0.1245
    144  CA       121.7660   61.5980   79.3160 C.3   166  ARG166      0.1563
    145  C        121.3540   60.3620   80.1110 C.2   166  ARG166      0.2260
    146  O        120.4090   60.4050   80.9020 O.2   166  ARG166     -0.2867
    147  CB       121.4850   61.3880   77.8230 C.3   166  ARG166      0.0307
    148  CG       120.1270   60.7710   77.4790 C.3   166  ARG166      0.0489
    149  CD       120.1560   60.2110   76.0600 C.3   166  ARG166      0.2205
    150  NE       118.8270   60.0610   75.4730 N.pl3 166  ARG166     -0.0865
    151  CZ       118.1420   58.9210   75.4430 C.cat 166  ARG166      0.5346
    152  NH1      118.6570   57.8150   75.9770 N.pl3 166  ARG166      0.1354
    153  NH2      116.9380   58.8880   74.8830 N.pl3 166  ARG166      0.1354
    154  N        119.0950   59.9560   83.4960 N.3   170  LYS170     -0.1245
    155  CA       117.8560   59.2550   83.2210 C.3   170  LYS170      0.1561
    156  C        117.6290   58.1000   84.1880 C.2   170  LYS170      0.2260
    157  O        116.5140   57.8890   84.6650 O.2   170  LYS170     -0.2867
    158  CB       117.8900   58.7220   81.7910 C.3   170  LYS170      0.0271
    159  CG       116.6440   57.9860   81.3480 C.3   170  LYS170      0.0035
    160  CD       116.8150   57.5060   79.9120 C.3   170  LYS170      0.0206
    161  CE       115.4820   57.1520   79.2670 C.3   170  LYS170      0.1093
    162  NZ       114.6230   58.3580   79.0980 N.3   170  LYS170     -0.1314
    163  N        119.7500   58.1490   89.9770 N.3   174  LEU174     -0.1245
    164  CA       118.7200   57.8390   90.9640 C.3   174  LEU174      0.1561
    165  C        119.0550   56.5470   91.7110 C.2   174  LEU174      0.2260
    166  O        118.7690   56.4160   92.9010 O.2   174  LEU174     -0.2867
    167  CB       117.3340   57.7600   90.3170 C.3   174  LEU174      0.0270
    168  CG       116.1460   57.9100   91.2770 C.3   174  LEU174      0.0019
    169  CD1      116.3180   59.1240   92.1790 C.3   174  LEU174      0.0001
    170  CD2      114.8180   57.9690   90.5260 C.3   174  LEU174      0.0001
    171  N        119.0680   48.5650   78.3550 N.3   211  ASP211     -0.1239
    172  CA       117.7170   49.0020   78.0140 C.3   211  ASP211      0.1674
    173  C        117.6590   49.5860   76.6060 C.2   211  ASP211      0.2266
    174  O        116.7240   49.3240   75.8530 O.2   211  ASP211     -0.2867
    175  CB       117.2140   50.0340   79.0200 C.3   211  ASP211      0.1410
    176  CG       115.7420   50.3270   78.8580 C.2   211  ASP211      0.3668
    177  OD1      114.9230   49.4470   79.1920 O.co2 211  ASP211     -0.2456
    178  OD2      115.4030   51.4380   78.4030 O.co2 211  ASP211     -0.2456
    179  N        105.9130   47.9260   73.8340 N.3   225  LYS225     -0.1245
    180  CA       105.8800   48.9410   72.7920 C.3   225  LYS225      0.1561
    181  C        106.5620   48.3840   71.5510 C.2   225  LYS225      0.2260
    182  O        107.3130   47.4130   71.6370 O.2   225  LYS225     -0.2867
    183  CB       106.5970   50.2060   73.2630 C.3   225  LYS225      0.0271
    184  CG       108.0110   49.9570   73.7660 C.3   225  LYS225      0.0035
    185  CD       108.5840   51.1900   74.4350 C.3   225  LYS225      0.0206
    186  CE       110.0100   50.9500   74.8970 C.3   225  LYS225      0.1093
    187  NZ       110.5510   52.1410   75.6020 N.3   225  LYS225     -0.1314
    188  N        112.4250   54.0110   70.3990 N.3   230  ASP230     -0.1239
    189  CA       113.3230   55.0910   70.7900 C.3   230  ASP230      0.1674
    190  C        113.6320   55.9830   69.6000 C.2   230  ASP230      0.2266
    191  O        113.4290   57.1950   69.6470 O.2   230  ASP230     -0.2867
    192  CB       114.6290   54.5370   71.3660 C.3   230  ASP230      0.1410
    193  CG       114.5500   54.2900   72.8540 C.2   230  ASP230      0.3668
    194  OD1      113.6240   54.8220   73.4960 O.co2 230  ASP230     -0.2456
    195  OD2      115.4160   53.5680   73.3820 O.co2 230  ASP230     -0.2456
    196  N        115.0130   59.6670   69.6250 N.3   235  HIS235     -0.1241
    197  CA       116.1010   59.4960   70.5810 C.3   235  HIS235      0.1621
    198  C        117.2730   58.7430   69.9630 C.2   235  HIS235      0.2264
    199  O        117.1600   57.5620   69.6300 O.2   235  HIS235     -0.2867
    200  CB       115.6140   58.7680   71.8330 C.3   235  HIS235      0.0745
    201  CG       114.3840   59.3660   72.4360 C.ar  235  HIS235      0.0817
    202  ND1      114.3420   60.6600   72.9090 N.ar  235  HIS235     -0.2268
    203  CD2      113.1510   58.8490   72.6450 C.ar  235  HIS235      0.1154
    204  CE1      113.1360   60.9140   73.3830 C.ar  235  HIS235      0.1986
    205  NE2      112.3940   59.8310   73.2350 N.ar  235  HIS235     -0.2212
@<TRIPOS>BOND
     1   190   191    2
     2   190   189    1
     3   196   197    1
     4   199   198    2
     5   198   197    1
     6   188   189    1
     7   197   200    1
     8   189   192    1
     9   192   193    1
    10   181   182    2
    11   181   180    1
    12   200   201    1
    13   201   203   ar
    14   201   202   ar
    15   203   205   ar
    16   180   183    1
    17   180   179    1
    18   193   195   ar
    19   193   194   ar
    20   202   204   ar
    21   205   204   ar
    22   183   184    1
    23   137   136    2
    24   184   185    1
    25   185   186    1
    26    64    63    2
    27   136   135    1
    28   153   151    1
    29   186   187    1
    30   151   150    2
    31   151   152    1
    32   150   149    1
    33    63    62    1
    34   174   173    2
    35   135   134    1
    36   135   138    1
    37   149   148    1
    38   139   140    1
    39   139   138    1
    40    56    55    2
    41    62    65    1
    42    62    61    1
    43   142   140   am
    44   140   141    2
    45   173   172    1
    46    69    70    1
    47    65    66    1
    48    67    66   ar
    49    70    71    1
    50    70    73    1
    51    74    73    1
    52    66    68   ar
    53    55    61   am
    54    55    54    1
    55   148   147    1
    56    71    72    2
    57   147   144    1
    58   172   171    1
    59   172   175    1
    60    59    57    1
    61   178   176   ar
    62    54    57    1
    63    54    53    1
    64   128   127    2
    65   176   175    1
    66   176   177   ar
    67    48    47    2
    68   162   161    1
    69    57    58    1
    70   161   160    1
    71   144   143    1
    72   144   145    1
    73   127   126    1
    74    40    39    2
    75   160   159    1
    76   145   146    2
    77    47    46    1
    78   133   131   ar
    79    58    60    1
    80    44    42   ar
    81    43    42   ar
    82   126   125    1
    83   126   129    1
    84    46    49    1
    85    46    45    1
    86    51    50   ar
    87    42    41    1
    88    39    45   am
    89    39    38    1
    90    75    76    1
    91   131   130    1
    92   131   132   ar
    93   159   158    1
    94   130   129    1
    95    49    50    1
    96    76    77    1
    97    76    79    1
    98   158   155    1
    99    50    52   ar
   100    38    41    1
   101    38    37    1
   102    30    29    2
   103    84    83    1
   104    77    78    2
   105    85    83    1
   106    79    80    1
   107    83    82    2
   108   122   121    2
   109    80    81    1
   110   155   154    1
   111   155   156    1
   112    37    29   am
   113    29    28    1
   114    82    81    1
   115   156   157    2
   116    22    21    2
   117   121   120    1
   118   115   114    2
   119    28    31    1
   120    28    27    1
   121    16    15    2
   122   120   119    1
   123   120   123    1
   124    21    20    1
   125    31    32    1
   126   114   119   am
   127   114   113    1
   128    20    23    1
   129    20    19    1
   130    25    24    1
   131    24    23    1
   132    24    26    1
   133   123   124    1
   134    32    34   ar
   135    32    33   ar
   136    15    19   am
   137    15    14    1
   138   113   112    1
   139   113   116    1
   140   117   116    1
   141    34    36   ar
   142    33    35   ar
   143   116   118    1
   144    14    17    1
   145    14    13    1
   146    17    18    1
   147    36    35   ar
   148    11    10    2
   149    13    10   am
   150    94    95   ar
   151    94    92   ar
   152    10     9    1
   153   107   106    2
   154    95    93   ar
   155    92    91   ar
   156   163   164    1
   157   167   164    1
   158   167   168    1
   159   106   105    1
   160   170   168    1
   161     9     8    1
   162     9    12    1
   163    93    91   ar
   164   164   165    1
   165    91    90    1
   166   168   169    1
   167     4     3    2
   168    86    87    1
   169   105   104    1
   170   105   108    1
   171   165   166    2
   172   110   108    1
   173    90    87    1
   174     3     2    1
   175    87    88    1
   176   108   109    1
   177     6     5    1
   178   109   111    1
   179     2     5    1
   180     2     1    1
   181    88    89    2
   182   100   101    1
   183   100    97    1
   184   101   103    1
   185   101   102    1
   186     5     7    1
   187    96    97    1
   188    97    98    1
   189    98    99    2
