@<TRIPOS>MOLECULE
tmp/3aqnA00.pdb
 193 181 0 0 0
SMALL
GASTEIGER

@<TRIPOS>ATOM
      1  N        -45.4980  -22.7100  -23.6870 N.3    39  GLY39      -0.1210
      2  CA       -45.2110  -21.3300  -24.0300 C.3    39  GLY39       0.1956
      3  C        -44.7300  -20.4030  -22.9340 C.2    39  GLY39       0.2612
      4  O        -43.6320  -20.5560  -22.4080 O.2    39  GLY39      -0.2717
      5  N        -45.5640  -19.4260  -22.6020 N.am   40  GLY40      -0.1956
      6  CA       -45.1590  -18.3370  -21.7350 C.3    40  GLY40       0.1869
      7  C        -44.0740  -18.7280  -20.7590 C.2    40  GLY40       0.2309
      8  O        -42.9330  -18.2700  -20.8440 O.2    40  GLY40      -0.2863
      9  N        -40.9000  -21.0250  -21.8630 N.3    43  ARG43      -0.1231
     10  CA       -39.9320  -20.2140  -22.5800 C.3    43  ARG43       0.1694
     11  C        -39.0120  -19.5490  -21.5760 C.2    43  ARG43       0.2592
     12  O        -37.8060  -19.7800  -21.5740 O.2    43  ARG43      -0.2718
     13  CB       -40.6220  -19.1520  -23.4320 C.3    43  ARG43       0.0321
     14  CG       -39.6590  -18.3720  -24.3110 C.3    43  ARG43       0.0489
     15  CD       -40.2720  -17.0890  -24.8340 C.3    43  ARG43       0.2205
     16  NE       -40.5770  -16.1630  -23.7530 N.pl3  43  ARG43      -0.0865
     17  CZ       -41.7950  -15.9560  -23.2720 C.cat  43  ARG43       0.5346
     18  NH1      -42.8320  -16.6030  -23.7860 N.pl3  43  ARG43       0.1354
     19  NH2      -41.9720  -15.1000  -22.2790 N.pl3  43  ARG43       0.1354
     20  N        -39.5990  -18.7310  -20.7100 N.am   44  ASP44      -0.1974
     21  CA       -38.8520  -18.0380  -19.6650 C.3    44  ASP44       0.1709
     22  C        -38.0620  -19.0010  -18.7880 C.2    44  ASP44       0.2293
     23  O        -36.9420  -18.7070  -18.3790 O.2    44  ASP44      -0.2864
     24  CB       -39.8050  -17.2130  -18.8020 C.3    44  ASP44       0.1436
     25  CG       -40.4640  -16.0810  -19.5770 C.2    44  ASP44       0.3671
     26  OD1      -39.7610  -15.3980  -20.3670 O.co2  44  ASP44      -0.2456
     27  OD2      -41.6860  -15.8760  -19.3840 O.co2  44  ASP44      -0.2456
     28  N        -44.1810  -15.6480  -15.6460 N.3    52  LYS52      -0.1231
     29  CA       -45.1830  -14.7680  -15.0710 C.3    52  LYS52       0.1693
     30  C        -46.5210  -15.4740  -15.1170 C.2    52  LYS52       0.2592
     31  O        -47.5390  -14.9420  -14.6690 O.2    52  LYS52      -0.2718
     32  CB       -45.2670  -13.4400  -15.8250 C.3    52  LYS52       0.0285
     33  CG       -43.9610  -12.6600  -15.9450 C.3    52  LYS52       0.0035
     34  CD       -44.2130  -11.3450  -16.6850 C.3    52  LYS52       0.0206
     35  CE       -43.1130  -11.0240  -17.7020 C.3    52  LYS52       0.1093
     36  NZ       -43.5810  -10.0450  -18.7350 N.3    52  LYS52      -0.1314
     37  N        -46.5180  -16.6850  -15.6540 N.am   53  ASP53      -0.1974
     38  CA       -47.7680  -17.3940  -15.8530 C.3    53  ASP53       0.1709
     39  C        -47.4800  -18.8540  -16.1580 C.2    53  ASP53       0.2293
     40  O        -46.4680  -19.1660  -16.7790 O.2    53  ASP53      -0.2864
     41  CB       -48.5340  -16.7570  -17.0190 C.3    53  ASP53       0.1436
     42  CG       -50.0280  -16.5960  -16.7370 C.2    53  ASP53       0.3671
     43  OD1      -50.6910  -15.8990  -17.5390 O.co2  53  ASP53      -0.2456
     44  OD2      -50.5340  -17.1520  -15.7260 O.co2  53  ASP53      -0.2456
     45  N        -49.5090  -22.1350  -17.8900 N.3    55  ASP55      -0.1239
     46  CA       -50.6770  -22.6210  -18.6190 C.3    55  ASP55       0.1674
     47  C        -50.4620  -24.0760  -19.0030 C.2    55  ASP55       0.2266
     48  O        -49.4800  -24.4100  -19.6640 O.2    55  ASP55      -0.2867
     49  CB       -50.9170  -21.7950  -19.8880 C.3    55  ASP55       0.1410
     50  CG       -50.2900  -20.4040  -19.8240 C.2    55  ASP55       0.3668
     51  OD1      -49.0380  -20.3000  -19.8190 O.co2  55  ASP55      -0.2456
     52  OD2      -51.0550  -19.4100  -19.8180 O.co2  55  ASP55      -0.2456
     53  N        -54.3360  -21.9830  -16.2610 N.3    92  GLU92      -0.1245
     54  CA       -55.0700  -22.0920  -17.5160 C.3    92  GLU92       0.1567
     55  C        -54.9860  -23.5180  -18.0530 C.2    92  GLU92       0.2260
     56  O        -53.8950  -24.0120  -18.3230 O.2    92  GLU92      -0.2867
     57  CB       -54.4650  -21.1120  -18.5220 C.3    92  GLU92       0.0388
     58  CG       -55.4170  -20.5900  -19.5830 C.3    92  GLU92       0.1160
     59  CD       -54.8370  -19.3970  -20.3460 C.2    92  GLU92       0.3649
     60  OE1      -54.9380  -19.3730  -21.5940 O.co2  92  GLU92      -0.2457
     61  OE2      -54.2690  -18.4890  -19.6930 O.co2  92  GLU92      -0.2457
     62  N        -55.7300  -29.0640  -29.9140 N.3    97  ARG97      -0.1245
     63  CA       -56.5540  -28.8250  -31.1010 C.3    97  ARG97       0.1563
     64  C        -55.9510  -29.5190  -32.3220 C.2    97  ARG97       0.2260
     65  O        -54.8260  -30.0140  -32.2670 O.2    97  ARG97      -0.2867
     66  CB       -56.7210  -27.3240  -31.3520 C.3    97  ARG97       0.0307
     67  CG       -55.4870  -26.5140  -31.0220 C.3    97  ARG97       0.0489
     68  CD       -55.7790  -25.0250  -30.9380 C.3    97  ARG97       0.2205
     69  NE       -54.6710  -24.2900  -30.3280 N.pl3  97  ARG97      -0.0865
     70  CZ       -54.6040  -22.9640  -30.2440 C.cat  97  ARG97       0.5346
     71  NH1      -55.5870  -22.2210  -30.7390 N.pl3  97  ARG97       0.1354
     72  NH2      -53.5560  -22.3790  -29.6690 N.pl3  97  ARG97       0.1354
     73  N        -51.0030  -24.9150  -34.2340 N.3   110  ARG110     -0.1231
     74  CA       -51.9210  -23.7890  -34.2470 C.3   110  ARG110      0.1694
     75  C        -51.3740  -22.6410  -33.4020 C.2   110  ARG110      0.2592
     76  O        -52.0170  -21.6030  -33.2430 O.2   110  ARG110     -0.2718
     77  CB       -53.2860  -24.2390  -33.7410 C.3   110  ARG110      0.0321
     78  CG       -53.6090  -25.6920  -34.0960 C.3   110  ARG110      0.0489
     79  CD       -54.2280  -25.8180  -35.4800 C.3   110  ARG110      0.2205
     80  NE       -55.6600  -26.1060  -35.4200 N.pl3 110  ARG110     -0.0865
     81  CZ       -56.5970  -25.2310  -35.0600 C.cat 110  ARG110      0.5346
     82  NH1      -56.2640  -23.9930  -34.7080 N.pl3 110  ARG110      0.1354
     83  NH2      -57.8720  -25.6040  -35.0430 N.pl3 110  ARG110      0.1354
     84  N        -50.1720  -22.8310  -32.8760 N.am  111  ARG111     -0.1966
     85  CA       -49.5540  -21.8230  -32.0320 C.3   111  ARG111      0.1729
     86  C        -48.6490  -20.8760  -32.8080 C.2   111  ARG111      0.2616
     87  O        -47.8110  -21.3120  -33.5830 O.2   111  ARG111     -0.2715
     88  CB       -48.7700  -22.4820  -30.8950 C.3   111  ARG111      0.0348
     89  CG       -49.5820  -22.7130  -29.6210 C.3   111  ARG111      0.0492
     90  CD       -48.6900  -23.0970  -28.4400 C.3   111  ARG111      0.2205
     91  NE       -49.4710  -23.2010  -27.2190 N.pl3 111  ARG111     -0.0865
     92  CZ       -50.4690  -24.0620  -27.0590 C.cat 111  ARG111      0.5346
     93  NH1      -51.1390  -24.0980  -25.9180 N.pl3 111  ARG111      0.1354
     94  NH2      -50.8030  -24.8850  -28.0460 N.pl3 111  ARG111      0.1354
     95  N        -48.7230  -19.5770  -32.5130 N.am  112  ASP112     -0.1957
     96  CA       -48.0460  -18.5530  -33.3270 C.3   112  ASP112      0.1840
     97  C        -46.5170  -18.5570  -33.5020 C.2   112  ASP112      0.2622
     98  O        -46.0620  -18.4830  -34.6380 O.2   112  ASP112     -0.2715
     99  CB       -48.4400  -17.1630  -32.8230 C.3   112  ASP112      0.1450
    100  CG       -49.9040  -17.0570  -32.4880 C.2   112  ASP112      0.3671
    101  OD1      -50.6590  -17.9980  -32.7990 O.co2 112  ASP112     -0.2456
    102  OD2      -50.3000  -16.0290  -31.9070 O.co2 112  ASP112     -0.2456
    103  N        -45.7140  -18.6900  -32.4480 N.am  113  PHE113     -0.1974
    104  CA       -44.2690  -18.7980  -32.6880 C.3   113  PHE113      0.1639
    105  C        -43.5610  -20.0450  -32.1760 C.2   113  PHE113      0.2290
    106  O        -44.0800  -20.7820  -31.3380 O.2   113  PHE113     -0.2864
    107  CB       -43.5550  -17.5710  -32.1590 C.3   113  PHE113      0.0560
    108  CG       -44.1840  -16.2970  -32.5820 C.ar  113  PHE113     -0.0200
    109  CD1      -43.5680  -15.4900  -33.5100 C.ar  113  PHE113     -0.0042
    110  CD2      -45.4020  -15.9070  -32.0590 C.ar  113  PHE113     -0.0042
    111  CE1      -44.1470  -14.3040  -33.9010 C.ar  113  PHE113     -0.0003
    112  CE2      -45.9910  -14.7240  -32.4500 C.ar  113  PHE113     -0.0003
    113  CZ       -45.3650  -13.9210  -33.3740 C.ar  113  PHE113     -0.0000
    114  N        -42.7330  -20.1200  -28.2080 N.3   116  ASN116     -0.1240
    115  CA       -43.9460  -20.1840  -27.4030 C.3   116  ASN116      0.1653
    116  C        -44.7300  -21.4640  -27.6350 C.2   116  ASN116      0.2266
    117  O        -45.8690  -21.5990  -27.1820 O.2   116  ASN116     -0.2867
    118  CB       -44.8380  -18.9770  -27.6610 C.3   116  ASN116      0.1155
    119  CG       -44.1830  -17.6780  -27.2610 C.2   116  ASN116      0.2627
    120  OD1      -44.7610  -16.6070  -27.4200 O.2   116  ASN116     -0.2716
    121  ND2      -42.9690  -17.7630  -26.7400 N.am  116  ASN116     -0.0877
    122  N        -50.9830  -16.7690  -42.4040 N.3   151  ARG151     -0.1245
    123  CA       -51.3400  -16.6610  -41.0060 C.3   151  ARG151      0.1563
    124  C        -51.6840  -15.2370  -40.6460 C.2   151  ARG151      0.2260
    125  O        -52.7430  -14.9920  -40.0790 O.2   151  ARG151     -0.2867
    126  CB       -50.2030  -17.1930  -40.1530 C.3   151  ARG151      0.0307
    127  CG       -49.8600  -18.6350  -40.4850 C.3   151  ARG151      0.0489
    128  CD       -50.9660  -19.5920  -40.0200 C.3   151  ARG151      0.2205
    129  NE       -51.1280  -19.5420  -38.5700 N.pl3 151  ARG151     -0.0865
    130  CZ       -50.1990  -19.9270  -37.7030 C.cat 151  ARG151      0.5346
    131  NH1      -49.0340  -20.4020  -38.1300 N.pl3 151  ARG151      0.1354
    132  NH2      -50.4370  -19.8260  -36.4070 N.pl3 151  ARG151      0.1354
    133  N        -55.1000  -13.9700  -38.8470 N.3   155  ASP155     -0.1239
    134  CA       -55.1600  -13.0950  -37.6650 C.3   155  ASP155      0.1674
    135  C        -54.0790  -12.0240  -37.7520 C.2   155  ASP155      0.2266
    136  O        -52.9140  -12.2910  -37.4730 O.2   155  ASP155     -0.2867
    137  CB       -54.9930  -13.8940  -36.3570 C.3   155  ASP155      0.1410
    138  CG       -55.1970  -13.0300  -35.0870 C.2   155  ASP155      0.3668
    139  OD1      -56.3220  -13.0540  -34.5220 O.co2 155  ASP155     -0.2456
    140  OD2      -54.2440  -12.3370  -34.6540 O.co2 155  ASP155     -0.2456
    141  N        -51.3670  -11.2010  -35.0380 N.3   158  ARG158     -0.1245
    142  CA       -50.2040  -12.0610  -34.9260 C.3   158  ARG158      0.1563
    143  C        -48.9590  -11.2690  -35.2770 C.2   158  ARG158      0.2260
    144  O        -47.8510  -11.6320  -34.8870 O.2   158  ARG158     -0.2867
    145  CB       -50.3200  -13.2470  -35.8730 C.3   158  ARG158      0.0307
    146  CG       -51.3230  -14.2930  -35.4930 C.3   158  ARG158      0.0489
    147  CD       -51.0680  -15.5280  -36.3360 C.3   158  ARG158      0.2205
    148  NE       -51.7850  -16.6990  -35.8520 N.pl3 158  ARG158     -0.0865
    149  CZ       -52.9150  -17.1440  -36.3820 C.cat 158  ARG158      0.5346
    150  NH1      -53.5090  -18.2200  -35.8840 N.pl3 158  ARG158      0.1354
    151  NH2      -53.4490  -16.5100  -37.4150 N.pl3 158  ARG158      0.1354
    152  N        -48.0780   -9.1750  -31.9450 N.3   161  ARG161     -0.1245
    153  CA       -47.4150  -10.0800  -31.0310 C.3   161  ARG161      0.1563
    154  C        -45.9820  -10.2540  -31.5060 C.2   161  ARG161      0.2260
    155  O        -45.0470   -9.8800  -30.8090 O.2   161  ARG161     -0.2867
    156  CB       -48.1530  -11.4140  -30.9450 C.3   161  ARG161      0.0307
    157  CG       -49.5590  -11.2560  -30.4070 C.3   161  ARG161      0.0489
    158  CD       -50.2750  -12.5830  -30.2010 C.3   161  ARG161      0.2205
    159  NE       -51.7200  -12.3720  -30.2220 N.pl3 161  ARG161     -0.0865
    160  CZ       -52.5580  -12.9510  -31.0800 C.cat 161  ARG161      0.5346
    161  NH1      -52.1090  -13.8130  -31.9810 N.pl3 161  ARG161      0.1354
    162  NH2      -53.8550  -12.6800  -31.0270 N.pl3 161  ARG161      0.1354
    163  N        -43.7960   -7.6340  -30.5440 N.3   164  ARG164     -0.1231
    164  CA       -43.7370   -7.5000  -29.0890 C.3   164  ARG164      0.1694
    165  C        -42.7250   -8.4440  -28.4480 C.2   164  ARG164      0.2592
    166  O        -41.8570   -8.0040  -27.7040 O.2   164  ARG164     -0.2718
    167  CB       -45.1130   -7.7350  -28.4840 C.3   164  ARG164      0.0321
    168  CG       -45.0680   -8.0460  -27.0190 C.3   164  ARG164      0.0489
    169  CD       -46.3640   -7.6250  -26.3650 C.3   164  ARG164      0.2205
    170  NE       -47.5250   -8.3100  -26.9310 N.pl3 164  ARG164     -0.0865
    171  CZ       -48.0000   -9.4620  -26.4660 C.cat 164  ARG164      0.5346
    172  NH1      -47.4050  -10.0520  -25.4370 N.pl3 164  ARG164      0.1354
    173  NH2      -49.0610  -10.0280  -27.0280 N.pl3 164  ARG164      0.1354
    174  N        -42.8420   -9.7370  -28.7310 N.am  165  PHE165     -0.1976
    175  CA       -41.8470  -10.6950  -28.2780 C.3   165  PHE165      0.1639
    176  C        -40.4770  -10.2920  -28.7750 C.2   165  PHE165      0.2290
    177  O        -39.4780  -10.5110  -28.1060 O.2   165  PHE165     -0.2864
    178  CB       -42.1740  -12.0970  -28.7750 C.3   165  PHE165      0.0560
    179  CG       -43.4930  -12.6060  -28.2970 C.ar  165  PHE165     -0.0200
    180  CD1      -43.7600  -12.7000  -26.9560 C.ar  165  PHE165     -0.0042
    181  CD2      -44.4770  -12.9840  -29.1870 C.ar  165  PHE165     -0.0042
    182  CE1      -44.9780  -13.1600  -26.5140 C.ar  165  PHE165     -0.0003
    183  CE2      -45.6980  -13.4530  -28.7390 C.ar  165  PHE165     -0.0003
    184  CZ       -45.9440  -13.5350  -27.4070 C.ar  165  PHE165     -0.0000
    185  N        -39.4860   -7.4800  -26.2690 N.3   168  LYS168     -0.1245
    186  CA       -39.4820   -7.9600  -24.8890 C.3   168  LYS168      0.1561
    187  C        -38.2550   -8.8320  -24.6160 C.2   168  LYS168      0.2260
    188  O        -37.4060   -8.4710  -23.7980 O.2   168  LYS168     -0.2867
    189  CB       -40.7740   -8.7160  -24.5830 C.3   168  LYS168      0.0271
    190  CG       -40.7890   -9.4450  -23.2600 C.3   168  LYS168      0.0035
    191  CD       -42.1070  -10.1560  -23.0530 C.3   168  LYS168      0.0206
    192  CE       -41.9930  -11.1150  -21.8970 C.3   168  LYS168      0.1093
    193  NZ       -41.5500  -10.4200  -20.6550 N.3   168  LYS168     -0.1314
@<TRIPOS>BOND
     1   122   123    1
     2   123   124    1
     3   123   126    1
     4   124   125    2
     5   127   126    1
     6   127   128    1
     7   128   129    1
     8   133   134    1
     9   129   130    2
    10   131   130    1
    11   135   134    1
    12   135   136    2
    13   130   132    1
    14   134   137    1
    15   151   149    1
    16   149   150    1
    17   149   148    2
    18   137   138    1
    19   147   148    1
    20   147   146    1
    21   145   146    1
    22   145   142    1
    23    79    80    1
    24    79    78    1
    25    80    81    2
    26   143   142    1
    27   143   144    2
    28   138   140   ar
    29   138   139   ar
    30    81    83    1
    31    81    82    1
    32   141   142    1
    33    98    97    2
    34    74    73    1
    35    74    77    1
    36    74    75    1
    37    78    77    1
    38   111   109   ar
    39   111   113   ar
    40    87    86    2
    41   109   108   ar
    42    97    96    1
    43    97   103   am
    44    75    76    2
    45    75    84   am
    46   113   112   ar
    47    96    99    1
    48    96    95    1
    49    84    85    1
    50    99   100    1
    51    86    95   am
    52    86    85    1
    53   101   100   ar
    54   104   103    1
    55   104   105    1
    56   104   107    1
    57   108   107    1
    58   108   110   ar
    59   100   102   ar
    60   112   110   ar
    61    64    65    2
    62    64    63    1
    63   105   106    2
    64    85    88    1
    65   161   160    1
    66   152   153    1
    67   154   153    1
    68   154   155    2
    69    66    63    1
    70    66    67    1
    71    63    62    1
    72   160   162    1
    73   160   159    2
    74   153   156    1
    75    67    68    1
    76   156   157    1
    77    68    69    1
    78    88    89    1
    79    71    70    1
    80   163   164    1
    81   157   158    1
    82    69    70    2
    83    70    72    1
    84   159   158    1
    85    89    90    1
    86   181   183   ar
    87   181   179   ar
    88   164   167    1
    89   164   165    1
    90   178   179    1
    91   178   175    1
    92   176   175    1
    93   176   177    2
    94   183   184   ar
    95   174   165   am
    96   174   175    1
    97   167   168    1
    98   165   166    2
    99    90    91    1
   100   179   180   ar
   101   114   115    1
   102    94    92    1
   103   118   115    1
   104   118   119    1
   105   116   115    1
   106   116   117    2
   107   120   119    2
   108   184   182   ar
   109   119   121   am
   110    91    92    2
   111    92    93    1
   112   173   171    1
   113   168   169    1
   114   180   182   ar
   115   170   171    2
   116   170   169    1
   117   171   172    1
   118   185   186    1
   119   186   187    1
   120   186   189    1
   121    15    14    1
   122    15    16    1
   123   187   188    2
   124   189   190    1
   125    14    13    1
   126     2     1    1
   127     2     3    1
   128    18    17    1
   129    16    17    2
   130    13    10    1
   131    17    19    1
   132   190   191    1
   133   191   192    1
   134     3     5   am
   135     3     4    2
   136     5     6    1
   137    10     9    1
   138    10    11    1
   139   192   193    1
   140     6     7    1
   141    60    59   ar
   142    11    12    2
   143    11    20   am
   144     8     7    2
   145    20    21    1
   146    26    25   ar
   147    59    61   ar
   148    59    58    1
   149    49    50    1
   150    49    46    1
   151    50    51   ar
   152    50    52   ar
   153    21    24    1
   154    21    22    1
   155    48    47    2
   156    58    57    1
   157    25    27   ar
   158    25    24    1
   159    47    46    1
   160    22    23    2
   161    36    35    1
   162    46    45    1
   163    57    54    1
   164    56    55    2
   165    55    54    1
   166    35    34    1
   167    43    42   ar
   168    54    53    1
   169    41    42    1
   170    41    38    1
   171    40    39    2
   172    42    44   ar
   173    34    33    1
   174    39    38    1
   175    33    32    1
   176    38    37    1
   177    32    29    1
   178    37    30   am
   179    28    29    1
   180    30    29    1
   181    30    31    2
