@<TRIPOS>MOLECULE
tmp/3aqtB00.pdb
 114 107 0 0 0
SMALL
GASTEIGER

@<TRIPOS>ATOM
      1  N         78.7440   14.5990   41.8760 N.3    66  GLY66      -0.1225
      2  CA        78.2390   13.3770   41.2870 C.3    66  GLY66       0.1811
      3  C         78.5780   12.1610   42.1310 C.2    66  GLY66       0.2280
      4  O         77.7280   11.3020   42.3580 O.2    66  GLY66      -0.2866
      5  N         76.6040   12.2530   45.3270 N.3    69  LEU69      -0.1231
      6  CA        75.2230   11.8520   45.0840 C.3    69  LEU69       0.1693
      7  C         75.1080   10.3410   44.9490 C.2    69  LEU69       0.2592
      8  O         74.1470    9.7450   45.4390 O.2    69  LEU69      -0.2718
      9  CB        74.6690   12.5200   43.8210 C.3    69  LEU69       0.0284
     10  CG        74.4090   14.0220   43.9000 C.3    69  LEU69       0.0019
     11  CD1       73.9570   14.5290   42.5330 C.3    69  LEU69       0.0001
     12  CD2       73.3690   14.3080   44.9670 C.3    69  LEU69       0.0001
     13  N         76.0770    9.7200   44.2790 N.am   70  ASP70      -0.1974
     14  CA        76.0480    8.2730   44.1150 C.3    70  ASP70       0.1709
     15  C         76.1690    7.5650   45.4730 C.2    70  ASP70       0.2293
     16  O         75.6630    6.4620   45.6460 O.2    70  ASP70      -0.2864
     17  CB        77.1710    7.8060   43.1830 C.3    70  ASP70       0.1436
     18  CG        76.9220    8.1760   41.7280 C.2    70  ASP70       0.3671
     19  OD1       75.7540    8.4280   41.3680 O.co2  70  ASP70      -0.2456
     20  OD2       77.8890    8.1940   40.9310 O.co2  70  ASP70      -0.2456
     21  N         66.2110   10.7160   41.5110 N.3    83  PHE83      -0.1241
     22  CA        66.3140   11.7040   40.4450 C.3    83  PHE83       0.1605
     23  C         65.9920   13.1020   40.9430 C.2    83  PHE83       0.2264
     24  O         66.7380   14.0510   40.6880 O.2    83  PHE83      -0.2867
     25  CB        65.3620   11.3190   39.3160 C.3    83  PHE83       0.0534
     26  CG        65.4720   12.1850   38.0990 C.ar   83  PHE83      -0.0203
     27  CD1       66.7030   12.4070   37.4920 C.ar   83  PHE83      -0.0042
     28  CD2       64.3290   12.7410   37.5260 C.ar   83  PHE83      -0.0042
     29  CE1       66.7960   13.1670   36.3330 C.ar   83  PHE83      -0.0003
     30  CE2       64.4130   13.5020   36.3660 C.ar   83  PHE83      -0.0003
     31  CZ        65.6510   13.7140   35.7680 C.ar   83  PHE83      -0.0000
     32  N         68.6240   14.3350   43.4960 N.3    86  SER86      -0.1202
     33  CA        69.8630   14.6830   42.8320 C.3    86  SER86       0.2020
     34  C         69.7390   16.0890   42.2560 C.2    86  SER86       0.2618
     35  O         70.6120   16.9410   42.4660 O.2    86  SER86      -0.2717
     36  CB        70.1660   13.6910   41.7040 C.3    86  SER86       0.2103
     37  OG        70.3160   12.3700   42.1970 O.3    86  SER86      -0.2182
     38  N         68.6450   16.3290   41.5360 N.am   87  LEU87      -0.1979
     39  CA        68.4210   17.6300   40.9290 C.3    87  LEU87       0.1596
     40  C         68.3270   18.7360   41.9690 C.2    87  LEU87       0.2287
     41  O         68.8800   19.8210   41.7770 O.2    87  LEU87      -0.2864
     42  CB        67.1630   17.5930   40.0600 C.3    87  LEU87       0.0297
     43  CG        67.2970   16.6450   38.8590 C.3    87  LEU87       0.0022
     44  CD1       65.9870   16.5850   38.0780 C.3    87  LEU87       0.0001
     45  CD2       68.4430   17.1230   37.9660 C.3    87  LEU87       0.0001
     46  N         71.7390   19.8180   43.0110 N.3    90  LEU90      -0.1245
     47  CA        72.4260   20.6300   42.0120 C.3    90  LEU90       0.1561
     48  C         71.9360   22.0710   42.1050 C.2    90  LEU90       0.2260
     49  O         72.7370   23.0020   42.1310 O.2    90  LEU90      -0.2867
     50  CB        72.2070   20.0650   40.5960 C.3    90  LEU90       0.0270
     51  CG        72.8610   18.6940   40.3240 C.3    90  LEU90       0.0019
     52  CD1       72.6050   18.2390   38.9070 C.3    90  LEU90       0.0001
     53  CD2       74.3570   18.7930   40.5660 C.3    90  LEU90       0.0001
     54  N         77.8550   14.3900   34.6350 N.3   116  LEU116     -0.1245
     55  CA        76.6300   13.9660   35.3120 C.3   116  LEU116      0.1561
     56  C         75.6110   13.2770   34.4130 C.2   116  LEU116      0.2260
     57  O         74.6820   12.6370   34.9030 O.2   116  LEU116     -0.2867
     58  CB        75.9730   15.1640   35.9960 C.3   116  LEU116      0.0270
     59  CG        76.8500   15.8750   37.0290 C.3   116  LEU116      0.0019
     60  CD1       76.1060   17.0750   37.6020 C.3   116  LEU116      0.0001
     61  CD2       77.2320   14.8980   38.1310 C.3   116  LEU116      0.0001
     62  N         75.2280    9.5330   34.8810 N.3   119  ARG119     -0.1231
     63  CA        74.6000    9.2520   36.1680 C.3   119  ARG119      0.1694
     64  C         73.0940    9.4870   36.0980 C.2   119  ARG119      0.2591
     65  O         72.2990    8.7030   36.6260 O.2   119  ARG119     -0.2718
     66  CB        75.2170   10.1280   37.2710 C.3   119  ARG119      0.0321
     67  CG        76.6610    9.7830   37.5950 C.3   119  ARG119      0.0489
     68  CD        77.2340   10.6720   38.6880 C.3   119  ARG119      0.2205
     69  NE        78.4890   10.1230   39.2040 N.pl3 119  ARG119     -0.0865
     70  CZ        79.6900   10.3360   38.6730 C.cat 119  ARG119      0.5346
     71  NH1       79.8320   11.1080   37.5990 N.pl3 119  ARG119      0.1354
     72  NH2       80.7520    9.7490   39.1990 N.pl3 119  ARG119      0.1354
     73  N         72.7080   10.5770   35.4470 N.am  120  ALA120     -0.1980
     74  CA        71.3010   10.9160   35.3140 C.3   120  ALA120      0.1597
     75  C         70.6200    9.8790   34.4350 C.2   120  ALA120      0.2287
     76  O         69.5330    9.4100   34.7440 O.2   120  ALA120     -0.2864
     77  CB        71.1500   12.3020   34.7050 C.3   120  ALA120      0.0319
     78  N         71.4200    6.8540   34.0180 N.3   122  ARG122     -0.1231
     79  CA        71.3210    5.6400   34.8140 C.3   122  ARG122      0.1694
     80  C         70.0840    5.7100   35.6980 C.2   122  ARG122      0.2592
     81  O         69.2650    4.7900   35.7190 O.2   122  ARG122     -0.2718
     82  CB        72.5550    5.5010   35.7070 C.3   122  ARG122      0.0321
     83  CG        72.4750    4.3600   36.7180 C.3   122  ARG122      0.0489
     84  CD        73.4610    4.5770   37.8410 C.3   122  ARG122      0.2205
     85  NE        73.1290    5.7680   38.6150 N.pl3 122  ARG122     -0.0865
     86  CZ        74.0210    6.5450   39.2230 C.cat 122  ARG122      0.5346
     87  NH1       75.3160    6.2610   39.1460 N.pl3 122  ARG122      0.1354
     88  NH2       73.6170    7.6050   39.9120 N.pl3 122  ARG122      0.1354
     89  N         69.9670    6.8080   36.4380 N.am  123  ASP123     -0.1974
     90  CA        68.8370    6.9920   37.3270 C.3   123  ASP123      0.1709
     91  C         67.5230    6.9460   36.5510 C.2   123  ASP123      0.2293
     92  O         66.5520    6.3500   37.0090 O.2   123  ASP123     -0.2864
     93  CB        68.9710    8.3090   38.1070 C.3   123  ASP123      0.1436
     94  CG        70.0730    8.2560   39.1630 C.2   123  ASP123      0.3671
     95  OD1       70.5230    7.1440   39.5090 O.co2 123  ASP123     -0.2456
     96  OD2       70.4850    9.3230   39.6660 O.co2 123  ASP123     -0.2456
     97  N         66.9840   17.4950   30.5060 N.3   145  THR145     -0.1203
     98  CA        67.0500   17.7100   31.9420 C.3   145  THR145      0.1994
     99  C         68.1210   18.7590   32.2420 C.2   145  THR145      0.2617
    100  O         67.8740   19.7210   32.9630 O.2   145  THR145     -0.2717
    101  CB        67.3900   16.3940   32.6790 C.3   145  THR145      0.1784
    102  OG1       66.3500   15.4410   32.4430 O.3   145  THR145     -0.2211
    103  CG2       67.5230   16.6270   34.1690 C.3   145  THR145      0.0376
    104  N         69.3100   18.5810   31.6760 N.am  146  PHE146     -0.1975
    105  CA        70.3770   19.5330   31.9170 C.3   146  PHE146      0.1639
    106  C         70.1770   20.8770   31.2050 C.2   146  PHE146      0.2290
    107  O         70.6290   21.9210   31.6910 O.2   146  PHE146     -0.2864
    108  CB        71.7130   18.8790   31.5800 C.3   146  PHE146      0.0560
    109  CG        72.1300   17.8690   32.6050 C.ar  146  PHE146     -0.0200
    110  CD1       72.5490   18.2820   33.8630 C.ar  146  PHE146     -0.0042
    111  CD2       72.0110   16.5100   32.3560 C.ar  146  PHE146     -0.0042
    112  CE1       72.8360   17.3570   34.8570 C.ar  146  PHE146     -0.0003
    113  CE2       72.2960   15.5710   33.3420 C.ar  146  PHE146     -0.0003
    114  CZ        72.7090   15.9960   34.5990 C.ar  146  PHE146     -0.0000
@<TRIPOS>BOND
     1    97    98    1
     2   106   107    2
     3   106   105    1
     4   108   105    1
     5   108   109    1
     6   104   105    1
     7   104    99   am
     8    98    99    1
     9    98   101    1
    10    99   100    2
    11   111   109   ar
    12   111   113   ar
    13   102   101    1
    14   109   110   ar
    15   101   103    1
    16   113   114   ar
    17   110   112   ar
    18    78    79    1
    19    56    57    2
    20    56    55    1
    21    75    76    2
    22    75    74    1
    23   114   112   ar
    24    54    55    1
    25    77    74    1
    26    79    80    1
    27    79    82    1
    28    62    63    1
    29    55    58    1
    30    74    73    1
    31    73    64   am
    32    80    81    2
    33    80    89   am
    34    82    83    1
    35    31    29   ar
    36    31    30   ar
    37    58    59    1
    38    64    63    1
    39    64    65    2
    40    63    66    1
    41    29    27   ar
    42    30    28   ar
    43    89    90    1
    44    91    92    2
    45    91    90    1
    46    83    84    1
    47    59    60    1
    48    59    61    1
    49    66    67    1
    50    90    93    1
    51    27    26   ar
    52    28    26   ar
    53    67    68    1
    54    71    70    1
    55    84    85    1
    56    45    43    1
    57    44    43    1
    58    26    25    1
    59    93    94    1
    60    85    86    2
    61    70    72    1
    62    70    69    2
    63    68    69    1
    64    43    42    1
    65    52    51    1
    66    87    86    1
    67    94    95   ar
    68    94    96   ar
    69    86    88    1
    70    25    22    1
    71    42    39    1
    72    51    53    1
    73    51    50    1
    74    22    23    1
    75    22    21    1
    76    50    47    1
    77    24    23    2
    78    39    38    1
    79    39    40    1
    80    20    18   ar
    81     2     1    1
    82     2     3    1
    83    19    18   ar
    84    38    34   am
    85    36    37    1
    86    36    33    1
    87    18    17    1
    88    41    40    2
    89    47    48    1
    90    47    46    1
    91    48    49    2
    92     3     4    2
    93    34    35    2
    94    34    33    1
    95    11    10    1
    96    33    32    1
    97    17    14    1
    98     9    10    1
    99     9     6    1
   100    10    12    1
   101    14    13    1
   102    14    15    1
   103    13     7   am
   104     7     6    1
   105     7     8    2
   106     6     5    1
   107    15    16    2
