@<TRIPOS>MOLECULE
tmp/3aqvA00.pdb
 181 172 0 0 0
SMALL
GASTEIGER

@<TRIPOS>ATOM
      1  N         -6.1420   43.5260   16.0700 N.3    16  LEU16      -0.1245
      2  CA        -5.8640   43.2380   14.6920 C.3    16  LEU16       0.1561
      3  C         -4.3600   43.0750   14.4160 C.2    16  LEU16       0.2260
      4  O         -4.0020   42.5520   13.3520 O.2    16  LEU16      -0.2867
      5  CB        -6.3410   44.3870   13.7850 C.3    16  LEU16       0.0270
      6  CG        -7.8390   44.7320   13.6600 C.3    16  LEU16       0.0019
      7  CD1       -7.9760   46.1560   13.2850 C.3    16  LEU16       0.0001
      8  CD2       -8.3230   43.8520   12.5080 C.3    16  LEU16       0.0001
      9  N         -2.8920   47.3000   17.6850 N.3    24  VAL24      -0.1245
     10  CA        -3.9210   48.0480   17.0040 C.3    24  VAL24       0.1561
     11  C         -5.1770   47.1900   17.2130 C.2    24  VAL24       0.2260
     12  O         -5.1410   45.9500   17.0690 O.2    24  VAL24      -0.2867
     13  CB        -3.5600   48.4040   15.5350 C.3    24  VAL24       0.0252
     14  CG1       -3.2290   47.1390   14.7690 C.3    24  VAL24       0.0019
     15  CG2       -4.7670   49.2840   14.8450 C.3    24  VAL24       0.0019
     16  N         -9.8100   51.8570   13.4750 N.3    37  ALA37      -0.1245
     17  CA        -8.6170   51.0560   13.9260 C.3    37  ALA37       0.1562
     18  C         -7.8820   51.9210   14.9490 C.2    37  ALA37       0.2260
     19  O         -7.4770   53.0050   14.5950 O.2    37  ALA37      -0.2867
     20  CB        -7.6970   50.7470   12.8220 C.3    37  ALA37       0.0290
     21  N         -4.8240   52.4010   17.2940 N.3    39  LYS39      -0.1245
     22  CA        -3.4660   52.0040   17.7440 C.3    39  LYS39       0.1561
     23  C         -3.3230   52.4900   19.1670 C.2    39  LYS39       0.2260
     24  O         -3.5910   53.6240   19.4550 O.2    39  LYS39      -0.2867
     25  CB        -2.3790   52.6920   16.9330 C.3    39  LYS39       0.0271
     26  CG        -2.5890   52.3700   15.4620 C.3    39  LYS39       0.0035
     27  CD        -1.3470   52.5760   14.4790 C.3    39  LYS39       0.0206
     28  CE        -0.6500   53.8310   14.6910 C.3    39  LYS39       0.1093
     29  NZ         0.3760   54.1220   13.6270 N.3    39  LYS39      -0.1314
     30  N         -4.2710   55.5820    5.1000 N.3    71  ILE71      -0.1245
     31  CA        -5.1580   55.5100    6.1970 C.3    71  ILE71       0.1561
     32  C         -5.0870   56.8070    6.9700 C.2    71  ILE71       0.2260
     33  O         -3.9950   57.1770    7.4320 O.2    71  ILE71      -0.2867
     34  CB        -4.7880   54.2750    7.0740 C.3    71  ILE71       0.0252
     35  CG1       -5.5670   53.0710    6.5760 C.3    71  ILE71       0.0019
     36  CG2       -5.2580   54.4780    8.5240 C.3    71  ILE71       0.0019
     37  CD1       -4.7560   52.2600    5.7550 C.3    71  ILE71       0.0001
     38  N         -7.8460   55.5920   14.0810 N.3    87  MET87      -0.1230
     39  CA        -7.5570   55.6870   12.6500 C.3    87  MET87       0.1702
     40  C         -8.6600   55.1390   11.8020 C.2    87  MET87       0.2592
     41  O         -9.4940   54.3460   12.2440 O.2    87  MET87      -0.2718
     42  CB        -6.2220   54.9800   12.3430 C.3    87  MET87       0.0401
     43  CG        -5.0420   55.8170   13.1740 C.3    87  MET87       0.0596
     44  SD        -3.5170   55.2000   12.7050 S.3    87  MET87      -0.1393
     45  CE        -3.2770   56.5550   11.4730 C.3    87  MET87       0.0692
     46  N         -8.6050   55.4910   10.5180 N.am   88  GLU88      -0.1966
     47  CA        -9.5120   54.8720    9.5860 C.3    88  GLU88       0.1733
     48  C         -9.4090   53.3190    9.5250 C.2    88  GLU88       0.2616
     49  O         -8.2850   52.7590    9.4780 O.2    88  GLU88      -0.2715
     50  CB        -9.1760   55.4910    8.2090 C.3    88  GLU88       0.0429
     51  CG        -9.9680   54.9560    7.1260 C.3    88  GLU88       0.1163
     52  CD        -9.5580   55.5880    5.8050 C.2    88  GLU88       0.3649
     53  OE1       -8.6180   56.4470    5.7350 O.co2  88  GLU88      -0.2457
     54  OE2      -10.1510   55.1380    4.8210 O.co2  88  GLU88      -0.2457
     55  N        -10.5490   52.6100    9.5810 N.am   89  TYR89      -0.1960
     56  CA       -10.5610   51.1590    9.4190 C.3    89  TYR89       0.1771
     57  C        -10.9400   50.8890    7.9600 C.2    89  TYR89       0.2619
     58  O        -11.8130   51.6070    7.3880 O.2    89  TYR89      -0.2715
     59  CB       -11.6120   50.5140   10.2920 C.3    89  TYR89       0.0574
     60  CG       -11.8290   49.0500   10.0250 C.ar   89  TYR89      -0.0198
     61  CD1      -10.9560   48.1300   10.5710 C.ar   89  TYR89      -0.0009
     62  CD2      -12.8860   48.5900    9.1950 C.ar   89  TYR89      -0.0009
     63  CE1      -11.1150   46.7950   10.3930 C.ar   89  TYR89       0.0417
     64  CE2      -13.0350   47.2250    8.9500 C.ar   89  TYR89       0.0417
     65  CZ       -12.1730   46.3430    9.5880 C.ar   89  TYR89       0.1957
     66  OH       -12.2230   44.9900    9.4300 O.3    89  TYR89      -0.2866
     67  N        -10.2460   49.9590    7.3100 N.am   90  VAL90      -0.1963
     68  CA       -10.6410   49.5500    5.9180 C.3    90  VAL90       0.1727
     69  C        -10.9460   48.0450    5.8380 C.2    90  VAL90       0.2617
     70  O        -10.1970   47.1970    6.3630 O.2    90  VAL90      -0.2715
     71  CB        -9.6000   49.9540    4.8490 C.3    90  VAL90       0.0290
     72  CG1       -9.4130   51.4620    4.7890 C.3    90  VAL90       0.0023
     73  CG2       -8.3250   49.2890    5.0810 C.3    90  VAL90       0.0023
     74  N        -12.0530   47.7110    5.1850 N.am   91  SER91      -0.1936
     75  CA       -12.6480   46.3870    5.2600 C.3    91  SER91       0.2055
     76  C        -11.9680   45.3070    4.4140 C.2    91  SER91       0.2644
     77  O        -12.0600   44.1250    4.7380 O.2    91  SER91      -0.2714
     78  CB       -14.1770   46.4310    4.9420 C.3    91  SER91       0.2130
     79  OG       -14.4980   47.2740    3.8650 O.3    91  SER91      -0.2179
     80  N        -11.2960   45.6840    3.3390 N.am   92  GLY92      -0.1939
     81  CA       -10.7290   44.6720    2.4330 C.3    92  GLY92       0.2014
     82  C         -9.5800   43.8370    2.9850 C.2    92  GLY92       0.2639
     83  O         -9.2020   42.7920    2.4200 O.2    92  GLY92      -0.2714
     84  N         -9.0060   44.2680    4.0990 N.am   93  GLY93      -0.1939
     85  CA        -7.8830   43.5680    4.6550 C.3    93  GLY93       0.2014
     86  C         -6.6530   43.8870    3.8170 C.2    93  GLY93       0.2638
     87  O         -6.6120   44.8180    3.0160 O.2    93  GLY93      -0.2714
     88  N         -5.6610   43.0540    3.9750 N.am   94  GLU94      -0.1977
     89  CA        -4.3570   43.3280    3.4580 C.3    94  GLU94       0.1602
     90  C         -4.2200   42.8240    2.0130 C.2    94  GLU94       0.2287
     91  O         -4.6660   41.7300    1.6690 O.2    94  GLU94      -0.2864
     92  CB        -3.3910   42.6150    4.3780 C.3    94  GLU94       0.0415
     93  CG        -2.0220   43.1210    4.4130 C.3    94  GLU94       0.1163
     94  CD        -1.1310   41.9390    4.5020 C.2    94  GLU94       0.3649
     95  OE1       -0.3380   41.8280    5.4740 O.co2  94  GLU94      -0.2457
     96  OE2       -1.3490   41.0680    3.6190 O.co2  94  GLU94      -0.2457
     97  N         -2.8870   39.1550    1.4930 N.3    97  ASP97      -0.1225
     98  CA        -3.9160   38.1470    1.8400 C.3    97  ASP97       0.1805
     99  C         -4.9800   38.0370    0.7640 C.2    97  ASP97       0.2597
    100  O         -5.4650   36.9490    0.4590 O.2    97  ASP97      -0.2718
    101  CB        -4.5550   38.4420    3.2000 C.3    97  ASP97       0.1424
    102  CG        -3.5720   38.2440    4.3610 C.2    97  ASP97       0.3668
    103  OD1       -3.9050   38.5360    5.5330 O.co2  97  ASP97      -0.2456
    104  OD2       -2.4420   37.7770    4.1010 O.co2  97  ASP97      -0.2456
    105  N         -5.3900   39.1560    0.2080 N.am   98  TYR98      -0.1976
    106  CA        -6.3830   39.1490   -0.8710 C.3    98  TYR98       0.1639
    107  C         -5.8930   38.3430   -2.0530 C.2    98  TYR98       0.2290
    108  O         -6.5870   37.4320   -2.5400 O.2    98  TYR98      -0.2864
    109  CB        -6.6220   40.5620   -1.3860 C.3    98  TYR98       0.0560
    110  CG        -7.7960   40.6540   -2.3350 C.ar   98  TYR98      -0.0198
    111  CD1       -9.0820   40.6930   -1.8350 C.ar   98  TYR98      -0.0009
    112  CD2       -7.6160   40.6640   -3.7240 C.ar   98  TYR98      -0.0009
    113  CE1      -10.1440   40.7810   -2.6360 C.ar   98  TYR98       0.0417
    114  CE2       -8.6900   40.7320   -4.5540 C.ar   98  TYR98       0.0417
    115  CZ        -9.9600   40.8030   -3.9900 C.ar   98  TYR98       0.1957
    116  OH       -11.1160   40.8910   -4.7480 O.3    98  TYR98      -0.2866
    117  N         -5.7480   34.7030   -1.2060 N.3   101  LYS101     -0.1231
    118  CA        -7.0280   34.0590   -1.3390 C.3   101  LYS101      0.1693
    119  C         -7.6200   34.0190   -2.7780 C.2   101  LYS101      0.2592
    120  O         -8.1070   32.9570   -3.1990 O.2   101  LYS101     -0.2718
    121  CB        -8.0080   34.5440   -0.2680 C.3   101  LYS101      0.0285
    122  CG        -9.4330   34.1690   -0.5220 C.3   101  LYS101      0.0035
    123  CD       -10.2550   34.2040    0.7530 C.3   101  LYS101      0.0206
    124  CE       -11.6760   33.8150    0.4430 C.3   101  LYS101      0.1093
    125  NZ       -12.6620   34.7190    1.1000 N.3   101  LYS101     -0.1314
    126  N         -7.5280   35.1060   -3.5450 N.am  102  HIS102     -0.1976
    127  CA        -8.1860   35.1580   -4.8490 C.3   102  HIS102      0.1656
    128  C         -7.2400   35.0090   -6.0250 C.2   102  HIS102      0.2291
    129  O         -7.6830   35.0140   -7.1650 O.2   102  HIS102     -0.2864
    130  CB        -9.0440   36.4260   -5.0300 C.3   102  HIS102      0.0771
    131  CG        -9.9950   36.6610   -3.9060 C.ar  102  HIS102      0.0820
    132  ND1      -11.0630   35.8270   -3.6500 N.ar  102  HIS102     -0.2267
    133  CD2      -10.0070   37.5980   -2.9290 C.ar  102  HIS102      0.1154
    134  CE1      -11.7010   36.2450   -2.5720 C.ar  102  HIS102      0.1986
    135  NE2      -11.0800   37.3200   -2.1140 N.ar  102  HIS102     -0.2212
    136  N         -3.2140   47.9860    2.3660 N.3   140  LEU140     -0.1245
    137  CA        -4.4970   47.3750    2.6300 C.3   140  LEU140      0.1561
    138  C         -5.5040   47.7610    1.5130 C.2   140  LEU140      0.2260
    139  O         -5.1520   48.5560    0.6620 O.2   140  LEU140     -0.2867
    140  CB        -4.9910   47.8900    3.9510 C.3   140  LEU140      0.0270
    141  CG        -4.1060   47.8830    5.1830 C.3   140  LEU140      0.0019
    142  CD1       -4.8700   48.5630    6.3450 C.3   140  LEU140      0.0001
    143  CD2       -3.7700   46.4310    5.5160 C.3   140  LEU140      0.0001
    144  N         -1.3560   51.6680    5.5350 N.3   150  ALA150     -0.1231
    145  CA        -1.2740   51.9260    6.9990 C.3   150  ALA150      0.1694
    146  C          0.1450   52.4530    7.3410 C.2   150  ALA150      0.2592
    147  O          1.1400   51.9030    6.8380 O.2   150  ALA150     -0.2718
    148  CB        -1.4960   50.5890    7.7000 C.3   150  ALA150      0.0304
    149  N          0.2590   53.4780    8.2050 N.am  151  ASP151     -0.1974
    150  CA         1.5290   54.1070    8.4700 C.3   151  ASP151      0.1709
    151  C          2.5050   53.0330    8.9960 C.2   151  ASP151      0.2293
    152  O          2.1050   52.0510    9.6590 O.2   151  ASP151     -0.2864
    153  CB         1.3840   55.2170    9.4940 C.3   151  ASP151      0.1436
    154  CG         0.7630   54.7310   10.7770 C.2   151  ASP151      0.3671
    155  OD1       -0.4990   54.6130   10.8410 O.co2 151  ASP151     -0.2456
    156  OD2        1.5390   54.4420   11.7080 O.co2 151  ASP151     -0.2456
    157  N          1.8790   49.0320   13.5510 N.3   157  MET157     -0.1230
    158  CA         1.2860   48.0010   14.3630 C.3   157  MET157      0.1702
    159  C          0.8660   46.8550   13.4580 C.2   157  MET157      0.2592
    160  O          0.1280   45.9860   13.9140 O.2   157  MET157     -0.2718
    161  CB         0.0090   48.4730   15.0500 C.3   157  MET157      0.0401
    162  CG         0.1510   49.5200   16.0620 C.3   157  MET157      0.0596
    163  SD         1.2530   48.9350   17.3400 S.3   157  MET157     -0.1393
    164  CE         1.2460   50.4310   18.3730 C.3   157  MET157      0.0692
    165  N          1.2690   46.8620   12.1920 N.am  158  MET158     -0.1979
    166  CA         0.8090   45.8070   11.2420 C.3   158  MET158      0.1605
    167  C          1.3920   44.4390   11.5650 C.2   158  MET158      0.2287
    168  O          2.5820   44.2090   11.3760 O.2   158  MET158     -0.2864
    169  CB         1.1250   46.1450    9.7700 C.3   158  MET158      0.0413
    170  CG         0.0720   47.0050    9.0330 C.3   158  MET158      0.0598
    171  SD        -1.4940   46.1690    8.6210 S.3   158  MET158     -0.1393
    172  CE        -2.0030   45.5340   10.2410 C.3   158  MET158      0.0692
    173  N         -1.8240   35.3320    6.9850 N.3   162  GLU162     -0.1245
    174  CA        -2.0230   34.0700    6.2300 C.3   162  GLU162      0.1567
    175  C         -0.7440   33.2050    6.0840 C.2   162  GLU162      0.2260
    176  O          0.0940   33.1560    7.0040 O.2   162  GLU162     -0.2867
    177  CB        -2.6020   34.3870    4.8390 C.3   162  GLU162      0.0388
    178  CG        -3.6100   33.3720    4.2730 C.3   162  GLU162      0.1160
    179  CD        -4.6760   34.0430    3.3900 C.2   162  GLU162      0.3649
    180  OE1       -5.8240   33.5410    3.3200 O.co2 162  GLU162     -0.2457
    181  OE2       -4.3750   35.0920    2.7820 O.co2 162  GLU162     -0.2457
@<TRIPOS>BOND
     1   129   128    2
     2   128   127    1
     3   130   127    1
     4   130   131    1
     5   127   126    1
     6   116   115    1
     7   114   115   ar
     8   114   112   ar
     9   115   113   ar
    10   131   132   ar
    11   131   133   ar
    12   112   110   ar
    13   132   134   ar
    14   126   119   am
    15   120   119    2
    16   133   135   ar
    17   119   118    1
    18   113   111   ar
    19   134   135   ar
    20   108   107    2
    21   110   111   ar
    22   110   109    1
    23   107   106    1
    24   109   106    1
    25   118   117    1
    26   118   121    1
    27   106   105    1
    28   122   121    1
    29   122   123    1
    30   105    99   am
    31   124   123    1
    32   124   125    1
    33   100    99    2
    34   139   138    2
    35    99    98    1
    36    97    98    1
    37   138   137    1
    38    91    90    2
    39    98   101    1
    40    90    89    1
    41   136   137    1
    42    83    82    2
    43    81    82    1
    44    81    80    1
    45   137   140    1
    46   181   179   ar
    47    82    84   am
    48    87    86    2
    49   101   102    1
    50   180   179   ar
    51    80    76   am
    52   179   178    1
    53    89    88    1
    54    89    92    1
    55    96    94   ar
    56    86    88   am
    57    86    85    1
    58    79    78    1
    59   140   141    1
    60    84    85    1
    61   104   102   ar
    62   178   177    1
    63   102   103   ar
    64    92    93    1
    65    93    94    1
    66    76    77    2
    67    76    75    1
    68    94    95   ar
    69    72    71    1
    70    54    52   ar
    71   177   174    1
    72    71    73    1
    73    71    68    1
    74    78    75    1
    75    30    31    1
    76   141   143    1
    77   141   142    1
    78    74    75    1
    79    74    69   am
    80   144   145    1
    81    53    52   ar
    82    37    35    1
    83    52    51    1
    84    69    68    1
    85    69    70    2
    86    68    67    1
    87   175   174    1
    88   175   176    2
    89    31    32    1
    90    31    34    1
    91   174   173    1
    92    35    34    1
    93   147   146    2
    94    32    33    2
    95   145   146    1
    96   145   148    1
    97    34    36    1
    98    51    50    1
    99    67    57   am
   100   146   149   am
   101    58    57    2
   102    57    56    1
   103   149   150    1
   104    50    47    1
   105   150   151    1
   106   150   153    1
   107   171   170    1
   108   171   172    1
   109    64    62   ar
   110    64    65   ar
   111   151   152    2
   112   170   169    1
   113    62    60   ar
   114    56    55    1
   115    56    59    1
   116    66    65    1
   117    49    48    2
   118   153   154    1
   119    48    55   am
   120    48    47    1
   121    47    46    1
   122    65    63   ar
   123   169   166    1
   124    60    59    1
   125    60    61   ar
   126    63    61   ar
   127    46    40   am
   128   154   155   ar
   129   154   156   ar
   130   166   167    1
   131   166   165    1
   132   168   167    2
   133    45    44    1
   134    40    41    2
   135    40    39    1
   136   165   159   am
   137    42    39    1
   138    42    43    1
   139     8     6    1
   140    39    38    1
   141    44    43    1
   142    20    17    1
   143     7     6    1
   144     4     3    2
   145   159   160    2
   146   159   158    1
   147    16    17    1
   148   157   158    1
   149    29    28    1
   150     6     5    1
   151     5     2    1
   152    17    18    1
   153   158   161    1
   154     3     2    1
   155    27    28    1
   156    27    26    1
   157    19    18    2
   158     2     1    1
   159    14    13    1
   160    15    13    1
   161   161   162    1
   162    26    25    1
   163    13    10    1
   164   162   163    1
   165    25    22    1
   166    10    11    1
   167    10     9    1
   168    12    11    2
   169    21    22    1
   170   163   164    1
   171    22    23    1
   172    23    24    2
