@<TRIPOS>MOLECULE
tmp/3ar2A01.pdb
 128 122 0 0 0
SMALL
GASTEIGER

@<TRIPOS>ATOM
      1  N         75.4510   22.8410   11.2910 N.3   104  VAL104     -0.1245
      2  CA        75.4820   23.9020   12.3040 C.3   104  VAL104      0.1561
      3  C         74.9700   23.3830   13.6420 C.2   104  VAL104      0.2260
      4  O         75.4830   23.7560   14.6960 O.2   104  VAL104     -0.2867
      5  CB        74.6610   25.1400   11.8760 C.3   104  VAL104      0.0252
      6  CG1       74.6180   26.1710   12.9980 C.3   104  VAL104      0.0019
      7  CG2       75.2670   25.7600   10.6230 C.3   104  VAL104      0.0019
      8  N         77.4840   20.5420   15.0850 N.3   107  TRP107     -0.1227
      9  CA        78.7070   21.2790   15.3770 C.3   107  TRP107      0.1737
     10  C         78.5340   22.0800   16.6590 C.2   107  TRP107      0.2595
     11  O         79.3320   21.9740   17.5880 O.2   107  TRP107     -0.2718
     12  CB        79.0300   22.2350   14.2280 C.3   107  TRP107      0.0564
     13  CG        80.2680   23.0560   14.4390 C.ar  107  TRP107      0.0003
     14  CD1       80.4650   24.0300   15.3830 C.ar  107  TRP107      0.0946
     15  CD2       81.4790   22.9850   13.6810 C.ar  107  TRP107      0.0152
     16  NE1       81.7280   24.5590   15.2640 N.ar  107  TRP107     -0.2442
     17  CE2       82.3710   23.9380   14.2260 C.ar  107  TRP107      0.0810
     18  CE3       81.9000   22.2080   12.5930 C.ar  107  TRP107      0.0012
     19  CZ2       83.6570   24.1330   13.7210 C.ar  107  TRP107      0.0191
     20  CZ3       83.1780   22.4030   12.0910 C.ar  107  TRP107      0.0001
     21  CH2       84.0420   23.3590   12.6560 C.ar  107  TRP107      0.0015
     22  N         77.4820   22.8920   16.6920 N.am  108  GLN108     -0.1979
     23  CA        77.1880   23.7310   17.8430 C.3   108  GLN108      0.1601
     24  C         77.0360   22.8970   19.1060 C.2   108  GLN108      0.2287
     25  O         77.4520   23.3100   20.1900 O.2   108  GLN108     -0.2864
     26  CB        75.9120   24.5220   17.5930 C.3   108  GLN108      0.0394
     27  CG        75.7840   25.7330   18.4630 C.3   108  GLN108      0.0908
     28  CD        76.8920   26.7350   18.2290 C.2   108  GLN108      0.2608
     29  OE1       77.3380   27.3970   19.1670 O.2   108  GLN108     -0.2717
     30  NE2       77.3420   26.8590   16.9810 N.am  108  GLN108     -0.0878
     31  N         80.4290   21.6240   20.5130 N.3   111  ASN111     -0.1240
     32  CA        81.0770   22.7190   21.2340 C.3   111  ASN111      0.1653
     33  C         80.5900   22.8430   22.6710 C.2   111  ASN111      0.2266
     34  O         81.3990   22.9100   23.6030 O.2   111  ASN111     -0.2867
     35  CB        80.8780   24.0510   20.5070 C.3   111  ASN111      0.1155
     36  CG        81.8610   24.2490   19.3740 C.2   111  ASN111      0.2627
     37  OD1       81.8780   25.2980   18.7280 O.2   111  ASN111     -0.2716
     38  ND2       82.6850   23.2400   19.1200 N.am  111  ASN111     -0.0877
     39  N         74.2410   27.0230   22.5300 N.3   321  LEU321     -0.1245
     40  CA        74.9730   28.2780   22.6530 C.3   321  LEU321      0.1561
     41  C         74.8950   28.8040   24.0900 C.2   321  LEU321      0.2260
     42  O         75.8810   29.3170   24.6270 O.2   321  LEU321     -0.2867
     43  CB        74.3780   29.3170   21.7020 C.3   321  LEU321      0.0270
     44  CG        75.2560   30.0040   20.6560 C.3   321  LEU321      0.0019
     45  CD1       74.4100   31.0090   19.9080 C.3   321  LEU321      0.0001
     46  CD2       76.4840   30.6730   21.2540 C.3   321  LEU321      0.0001
     47  N         76.9660   26.8230   26.4810 N.3   324  ARG324     -0.1231
     48  CA        78.3320   27.1880   26.1330 C.3   324  ARG324      0.1694
     49  C         78.7400   28.5550   26.6890 C.2   324  ARG324      0.2591
     50  O         79.7810   28.6670   27.3330 O.2   324  ARG324     -0.2718
     51  CB        78.5060   27.1380   24.6070 C.3   324  ARG324      0.0321
     52  CG        79.8390   27.6540   24.1000 C.3   324  ARG324      0.0489
     53  CD        80.1840   27.0790   22.7380 C.3   324  ARG324      0.2205
     54  NE        81.6180   27.2050   22.4930 N.pl3 324  ARG324     -0.0865
     55  CZ        82.5600   26.5290   23.1580 C.cat 324  ARG324      0.5346
     56  NH1       82.2300   25.6660   24.1100 N.pl3 324  ARG324      0.1354
     57  NH2       83.8420   26.7180   22.8740 N.pl3 324  ARG324      0.1354
     58  N         77.9250   29.5830   26.4380 N.am  325  ARG325     -0.1980
     59  CA        78.2030   30.9370   26.9280 C.3   325  ARG325      0.1597
     60  C         78.2130   30.9740   28.4510 C.2   325  ARG325      0.2287
     61  O         78.9010   31.8130   29.0460 O.2   325  ARG325     -0.2864
     62  CB        77.1850   31.9590   26.3980 C.3   325  ARG325      0.0334
     63  CG        77.3480   32.3680   24.9310 C.3   325  ARG325      0.0492
     64  CD        76.7140   33.7430   24.6830 C.3   325  ARG325      0.2205
     65  NE        76.4780   34.0370   23.2650 N.pl3 325  ARG325     -0.0865
     66  CZ        75.4110   33.6300   22.5770 C.cat 325  ARG325      0.5346
     67  NH1       74.4740   32.8930   23.1650 N.pl3 325  ARG325      0.1354
     68  NH2       75.2740   33.9520   21.2960 N.pl3 325  ARG325      0.1354
     69  N         81.3920   29.2020   29.7530 N.3   328  LYS328     -0.1245
     70  CA        82.4700   30.1620   29.5480 C.3   328  LYS328      0.1561
     71  C         82.6820   30.9830   30.8180 C.2   328  LYS328      0.2260
     72  O         83.7810   31.4790   31.0680 O.2   328  LYS328     -0.2867
     73  CB        82.1290   31.0870   28.3710 C.3   328  LYS328      0.0271
     74  CG        83.2840   31.9760   27.8600 C.3   328  LYS328      0.0035
     75  CD        82.7870   33.3220   27.2670 C.3   328  LYS328      0.0206
     76  CE        81.7510   33.1630   26.1250 C.3   328  LYS328      0.1093
     77  NZ        82.2990   32.6030   24.8440 N.3   328  LYS328     -0.1314
     78  N         70.9130   29.0470    6.0920 N.3   802  LEU802     -0.1245
     79  CA        71.8720   29.7740    6.8970 C.3   802  LEU802      0.1561
     80  C         71.4540   31.2200    7.1780 C.2   802  LEU802      0.2260
     81  O         71.7140   31.7250    8.2650 O.2   802  LEU802     -0.2867
     82  CB        73.2610   29.7140    6.2690 C.3   802  LEU802      0.0270
     83  CG        73.8380   28.3130    6.0260 C.3   802  LEU802      0.0019
     84  CD1       75.2610   28.4190    5.4960 C.3   802  LEU802      0.0001
     85  CD2       73.8030   27.4320    7.2830 C.3   802  LEU802      0.0001
     86  N         69.0380   30.6300   10.2550 N.3   805  THR805     -0.1203
     87  CA        69.7630   30.0430   11.3770 C.3   805  THR805      0.1994
     88  C         70.6660   31.0670   12.0480 C.2   805  THR805      0.2617
     89  O         70.8160   31.0700   13.2770 O.2   805  THR805     -0.2717
     90  CB        70.6250   28.8510   10.9030 C.3   805  THR805      0.1784
     91  OG1       69.8190   27.9540   10.1270 O.3   805  THR805     -0.2211
     92  CG2       71.2210   28.0960   12.0880 C.3   805  THR805      0.0376
     93  N         71.2630   31.9330   11.2340 N.am  806  ALA806     -0.1979
     94  CA        72.1750   32.9550   11.7280 C.3   806  ALA806      0.1597
     95  C         71.4840   33.8710   12.7170 C.2   806  ALA806      0.2287
     96  O         72.1110   34.3630   13.6540 O.2   806  ALA806     -0.2864
     97  CB        72.7540   33.7600   10.5820 C.3   806  ALA806      0.0319
     98  N         72.0670   33.8720   16.1620 N.3   809  PHE809     -0.1241
     99  CA        73.3130   34.4780   16.5960 C.3   809  PHE809      0.1605
    100  C         73.1800   35.9880   16.7140 C.2   809  PHE809      0.2264
    101  O         74.1680   36.6940   16.9380 O.2   809  PHE809     -0.2867
    102  CB        74.4450   34.0920   15.6430 C.3   809  PHE809      0.0534
    103  CG        74.7920   32.6350   15.6930 C.ar  809  PHE809     -0.0203
    104  CD1       75.9720   32.2100   16.2920 C.ar  809  PHE809     -0.0042
    105  CD2       73.9200   31.6740   15.1670 C.ar  809  PHE809     -0.0042
    106  CE1       76.2870   30.8440   16.3630 C.ar  809  PHE809     -0.0003
    107  CE2       74.2280   30.3080   15.2300 C.ar  809  PHE809     -0.0003
    108  CZ        75.4120   29.8920   15.8290 C.ar  809  PHE809     -0.0000
    109  N         77.7080   37.1700   11.3020 N.3   932  TRP932     -0.1241
    110  CA        77.3300   35.8320   10.8660 C.3   932  TRP932      0.1605
    111  C         76.1660   35.8570    9.8870 C.2   932  TRP932      0.2264
    112  O         76.1060   35.0310    8.9770 O.2   932  TRP932     -0.2867
    113  CB        77.0020   34.9470   12.0730 C.3   932  TRP932      0.0550
    114  CG        78.1860   34.7420   12.9590 C.ar  932  TRP932      0.0003
    115  CD1       78.3920   35.2730   14.2000 C.ar  932  TRP932      0.0946
    116  CD2       79.3590   33.9860   12.6450 C.ar  932  TRP932      0.0152
    117  NE1       79.6210   34.8840   14.6840 N.ar  932  TRP932     -0.2442
    118  CE2       80.2350   34.0960   13.7470 C.ar  932  TRP932      0.0810
    119  CE3       79.7550   33.2250   11.5350 C.ar  932  TRP932      0.0012
    120  CZ2       81.4840   33.4710   13.7750 C.ar  932  TRP932      0.0191
    121  CZ3       80.9970   32.6040   11.5620 C.ar  932  TRP932      0.0001
    122  CH2       81.8480   32.7320   12.6750 C.ar  932  TRP932      0.0015
    123  N         76.1090   34.9960    5.6700 N.3   936  SER936     -0.1217
    124  CA        75.0940   34.0770    5.1910 C.3   936  SER936      0.1889
    125  C         74.2900   34.7220    4.0660 C.2   936  SER936      0.2288
    126  O         73.9870   34.0690    3.0660 O.2   936  SER936     -0.2866
    127  CB        74.1770   33.6670    6.3420 C.3   936  SER936      0.2089
    128  OG        74.9360   33.2620    7.4700 O.3   936  SER936     -0.2183
@<TRIPOS>BOND
     1   126   125    2
     2   125   124    1
     3   124   123    1
     4   124   127    1
     5    84    83    1
     6    83    82    1
     7    83    85    1
     8    78    79    1
     9    82    79    1
    10   127   128    1
    11    79    80    1
    12    80    81    2
    13   112   111    2
    14   111   110    1
    15    91    90    1
    16    86    87    1
    17    97    94    1
    18     7     5    1
    19   110   109    1
    20   110   113    1
    21    90    87    1
    22    90    92    1
    23    93    94    1
    24    93    88   am
    25     1     2    1
    26    87    88    1
    27   119   121   ar
    28   119   116   ar
    29   121   122   ar
    30    94    95    1
    31     5     2    1
    32     5     6    1
    33    88    89    2
    34   113   114    1
    35    20    18   ar
    36    20    21   ar
    37     2     3    1
    38    18    15   ar
    39   116   114   ar
    40   116   118   ar
    41    21    19   ar
    42   122   120   ar
    43    95    96    2
    44   114   115   ar
    45     3     4    2
    46    15    17   ar
    47    15    13   ar
    48    19    17   ar
    49   118   120   ar
    50   118   117   ar
    51   115   117   ar
    52    17    16   ar
    53    12    13    1
    54    12     9    1
    55    13    14   ar
    56     8     9    1
    57   105   107   ar
    58   105   103   ar
    59   107   108   ar
    60    16    14   ar
    61     9    10    1
    62   102   103    1
    63   102    99    1
    64   103   104   ar
    65   108   106   ar
    66    98    99    1
    67   104   106   ar
    68    99   100    1
    69    10    22   am
    70    10    11    2
    71    22    23    1
    72   100   101    2
    73    30    28   am
    74    26    23    1
    75    26    27    1
    76    23    24    1
    77    28    27    1
    78    28    29    2
    79    37    36    2
    80    24    25    2
    81    38    36   am
    82    36    35    1
    83    45    44    1
    84    35    32    1
    85    31    32    1
    86    44    46    1
    87    44    43    1
    88    32    33    1
    89    68    66    1
    90    43    40    1
    91    54    53    1
    92    54    55    2
    93    39    40    1
    94    66    67    1
    95    66    65    2
    96    40    41    1
    97    33    34    2
    98    53    52    1
    99    57    55    1
   100    55    56    1
   101    65    64    1
   102    41    42    2
   103    52    51    1
   104    51    48    1
   105    64    63    1
   106    77    76    1
   107    63    62    1
   108    76    75    1
   109    48    47    1
   110    48    49    1
   111    62    59    1
   112    58    49   am
   113    58    59    1
   114    49    50    2
   115    59    60    1
   116    75    74    1
   117    74    73    1
   118    73    70    1
   119    60    61    2
   120    70    69    1
   121    70    71    1
   122    71    72    2
