@<TRIPOS>MOLECULE
tmp/3ar4A00.pdb
 161 151 0 0 0
SMALL
GASTEIGER

@<TRIPOS>ATOM
      1  N         49.1860   -5.2120  132.3620 N.3   202  GLN202     -0.1245
      2  CA        48.5600   -4.1670  133.1480 C.3   202  GLN202      0.1566
      3  C         48.9840   -4.1630  134.6160 C.2   202  GLN202      0.2260
      4  O         49.0390   -3.1060  135.2400 O.2   202  GLN202     -0.2867
      5  CB        47.0350   -4.2930  133.0370 C.3   202  GLN202      0.0367
      6  CG        46.2680   -3.1200  133.6130 C.3   202  GLN202      0.0905
      7  CD        44.8070   -3.1330  133.2080 C.2   202  GLN202      0.2608
      8  OE1       44.0950   -4.1150  133.4340 O.2   202  GLN202     -0.2717
      9  NE2       44.3500   -2.0400  132.6040 N.am  202  GLN202     -0.0878
     10  N         32.3200   -0.9720  126.0810 N.3   353  THR353     -0.1218
     11  CA        32.6030    0.4470  126.2550 C.3   353  THR353      0.1862
     12  C         32.9360    1.2450  125.0000 C.2   353  THR353      0.2287
     13  O         33.9120    0.9730  124.3040 O.2   353  THR353     -0.2866
     14  CB        33.7070    0.6530  127.2960 C.3   353  THR353      0.1770
     15  OG1       33.3700   -0.0840  128.4780 O.3   353  THR353     -0.2211
     16  CG2       33.8300    2.1400  127.6560 C.3   353  THR353      0.0375
     17  N         39.3760   10.3900  133.3210 N.3   439  GLU439     -0.1245
     18  CA        38.5430    9.2240  133.0720 C.3   439  GLU439      0.1567
     19  C         37.0450    9.5040  133.2700 C.2   439  GLU439      0.2260
     20  O         36.6590   10.3170  134.1060 O.2   439  GLU439     -0.2867
     21  CB        39.0000    8.0820  133.9820 C.3   439  GLU439      0.0388
     22  CG        38.0950    6.8790  133.9600 C.3   439  GLU439      0.1160
     23  CD        38.6420    5.7120  134.7580 C.2   439  GLU439      0.3649
     24  OE1       39.0790    5.9230  135.9140 O.co2 439  GLU439     -0.2457
     25  OE2       38.6240    4.5830  134.2250 O.co2 439  GLU439     -0.2457
     26  N         34.7100    7.6400  134.6110 N.3   441  THR441     -0.1203
     27  CA        34.2430    7.2430  135.9360 C.3   441  THR441      0.1994
     28  C         34.3730    8.3480  136.9860 C.2   441  THR441      0.2617
     29  O         33.4100    8.6510  137.7110 O.2   441  THR441     -0.2717
     30  CB        34.9900    5.9770  136.4200 C.3   441  THR441      0.1784
     31  OG1       34.6070    4.8630  135.6010 O.3   441  THR441     -0.2211
     32  CG2       34.6690    5.6640  137.8750 C.3   441  THR441      0.0376
     33  N         35.5550    8.9520  137.0570 N.am  442  GLU442     -0.1979
     34  CA        35.8100   10.0170  138.0230 C.3   442  GLU442      0.1602
     35  C         35.1690   11.3340  137.6160 C.2   442  GLU442      0.2287
     36  O         34.7660   12.1160  138.4730 O.2   442  GLU442     -0.2864
     37  CB        37.3190   10.2360  138.2130 C.3   442  GLU442      0.0415
     38  CG        38.0780    9.0170  138.7020 C.3   442  GLU442      0.1163
     39  CD        39.4550    9.3800  139.2360 C.2   442  GLU442      0.3649
     40  OE1       40.0690   10.3360  138.7090 O.co2 442  GLU442     -0.2457
     41  OE2       39.9270    8.7070  140.1730 O.co2 442  GLU442     -0.2457
     42  N         44.8680    4.0360  142.3340 N.3   487  PHE487     -0.1241
     43  CA        44.0090    2.8800  142.1470 C.3   487  PHE487      0.1605
     44  C         44.8330    1.7790  141.4840 C.2   487  PHE487      0.2264
     45  O         45.7730    2.0620  140.7460 O.2   487  PHE487     -0.2867
     46  CB        42.8380    3.2550  141.2290 C.3   487  PHE487      0.0534
     47  CG        42.0600    2.0740  140.7150 C.ar  487  PHE487     -0.0203
     48  CD1       42.4510    1.4140  139.5500 C.ar  487  PHE487     -0.0042
     49  CD2       40.9400    1.6140  141.3990 C.ar  487  PHE487     -0.0042
     50  CE1       41.7310    0.3110  139.0740 C.ar  487  PHE487     -0.0003
     51  CE2       40.2160    0.5150  140.9330 C.ar  487  PHE487     -0.0003
     52  CZ        40.6080   -0.1370  139.7700 C.ar  487  PHE487     -0.0000
     53  N         44.1360   -2.5590  140.1360 N.3   489  ARG489     -0.1245
     54  CA        43.2230   -3.6900  140.0100 C.3   489  ARG489      0.1563
     55  C         43.2200   -4.6800  141.1650 C.2   489  ARG489      0.2260
     56  O         42.2080   -5.3300  141.4090 O.2   489  ARG489     -0.2867
     57  CB        43.5020   -4.4500  138.7110 C.3   489  ARG489      0.0307
     58  CG        43.5550   -3.5660  137.4950 C.3   489  ARG489      0.0489
     59  CD        43.2880   -4.3740  136.2430 C.3   489  ARG489      0.2205
     60  NE        44.0730   -5.6020  136.1940 N.pl3 489  ARG489     -0.0865
     61  CZ        43.9060   -6.5500  135.2790 C.cat 489  ARG489      0.5346
     62  NH1       42.9830   -6.4070  134.3370 N.pl3 489  ARG489      0.1354
     63  NH2       44.6520   -7.6460  135.3120 N.pl3 489  ARG489      0.1354
     64  N         41.3310   -2.7340  143.9350 N.3   492  LYS492     -0.1245
     65  CA        40.1850   -2.0790  143.3190 C.3   492  LYS492      0.1561
     66  C         39.6540   -0.8900  144.1280 C.2   492  LYS492      0.2260
     67  O         38.4360   -0.7560  144.3710 O.2   492  LYS492     -0.2867
     68  CB        39.0670   -3.0960  143.0840 C.3   492  LYS492      0.0271
     69  CG        39.3790   -4.1060  141.9760 C.3   492  LYS492      0.0035
     70  CD        38.1440   -4.9280  141.6120 C.3   492  LYS492      0.0206
     71  CE        38.3580   -5.7200  140.3270 C.3   492  LYS492      0.1093
     72  NZ        39.5430   -6.6180  140.4160 N.3   492  LYS492     -0.1314
     73  N         40.9770    3.4130  145.6390 N.3   494  MET494     -0.1245
     74  CA        41.8780    4.5460  145.5840 C.3   494  MET494      0.1570
     75  C         41.5950    5.4320  146.7880 C.2   494  MET494      0.2261
     76  O         40.4580    5.4980  147.2650 O.2   494  MET494     -0.2867
     77  CB        41.6220    5.3130  144.2870 C.3   494  MET494      0.0387
     78  CG        42.2140    6.6950  144.2130 C.3   494  MET494      0.0595
     79  SD        41.8600    7.3540  142.5970 S.3   494  MET494     -0.1393
     80  CE        42.4220    9.0510  142.7350 C.3   494  MET494      0.0692
     81  N         37.6730    5.5160  147.7860 N.3   515  LYS515     -0.1231
     82  CA        36.6990    5.2450  146.7290 C.3   515  LYS515      0.1696
     83  C         37.1370    3.9260  146.0570 C.2   515  LYS515      0.2632
     84  O         38.3360    3.7010  145.8620 O.2   515  LYS515     -0.2714
     85  CB        36.7600    6.4080  145.7340 C.3   515  LYS515      0.0285
     86  CG        36.0430    6.2660  144.4250 C.3   515  LYS515      0.0035
     87  CD        36.5400    7.3440  143.4440 C.3   515  LYS515      0.0206
     88  CE        38.0500    7.2220  143.3000 C.3   515  LYS515      0.1093
     89  NZ        38.6530    7.9520  142.1710 N.3   515  LYS515     -0.1314
     90  N         36.1810    3.0580  145.7230 N.am  516  GLY516     -0.1718
     91  CA        36.5180    1.8040  145.0640 C.2   516  GLY516      0.1480
     92  C         35.3660    0.8220  144.8740 C.2   516  GLY516      0.2820
     93  O         34.2110    1.1240  145.2160 O.2   516  GLY516     -0.2669
     94  N         35.6760   -0.3480  144.3080 N.am  517  ALA517     -0.1929
     95  CA        34.6720   -1.3980  144.1080 C.3   517  ALA517      0.1717
     96  C         34.1290   -1.6600  145.5070 C.2   517  ALA517      0.2458
     97  O         34.9040   -1.7810  146.4590 O.2   517  ALA517     -0.2730
     98  CB        35.3160   -2.6620  143.5280 C.3   517  ALA517      0.0333
     99  N         32.7930   -1.7700  145.6460 N.am  518  PRO518     -0.2727
    100  CA        32.0880   -1.9970  146.9150 C.3   518  PRO518      0.1402
    101  C         32.5110   -3.1470  147.8070 C.2   518  PRO518      0.2269
    102  O         32.7440   -2.9520  149.0040 O.2   518  PRO518     -0.2865
    103  CB        30.6180   -2.1380  146.4900 C.3   518  PRO518      0.0296
    104  CG        30.5460   -1.4060  145.1950 C.3   518  PRO518      0.0237
    105  CD        31.8460   -1.8060  144.5190 C.3   518  PRO518      0.0939
    106  N         27.1130    1.0250  137.5460 N.3   560  ARG560     -0.1231
    107  CA        28.5060    0.7930  137.9430 C.3   560  ARG560      0.1694
    108  C         28.5900    1.4470  139.3290 C.2   560  ARG560      0.2592
    109  O         28.5390    2.6780  139.4420 O.2   560  ARG560     -0.2718
    110  CB        29.4160    1.5020  136.9260 C.3   560  ARG560      0.0321
    111  CG        30.9310    1.4510  137.1490 C.3   560  ARG560      0.0489
    112  CD        31.5700    2.1660  135.9620 C.3   560  ARG560      0.2205
    113  NE        33.0270    2.2910  135.9940 N.pl3 560  ARG560     -0.0865
    114  CZ        33.8900    1.3010  135.7720 C.cat 560  ARG560      0.5346
    115  NH1       33.4660    0.0710  135.5020 N.pl3 560  ARG560      0.1354
    116  NH2       35.1910    1.5530  135.7940 N.pl3 560  ARG560      0.1354
    117  N         28.7030    0.6370  140.3780 N.am  561  CYS561     -0.1956
    118  CA        28.7530    1.1660  141.7300 C.3   561  CYS561      0.1843
    119  C         30.1360    1.3500  142.3610 C.2   561  CYS561      0.2625
    120  O         31.0580    0.5600  142.1600 O.2   561  CYS561     -0.2714
    121  CB        27.9010    0.3030  142.6630 C.3   561  CYS561      0.0997
    122  SG        26.1100    0.2790  142.2390 S.3   561  CYS561     -0.0797
    123  N         30.2470    2.4120  143.1470 N.am  562  LEU562     -0.1977
    124  CA        31.4660    2.7370  143.8610 C.3   562  LEU562      0.1596
    125  C         31.0940    2.9770  145.3200 C.2   562  LEU562      0.2287
    126  O         30.1220    3.6850  145.6080 O.2   562  LEU562     -0.2864
    127  CB        32.0720    4.0090  143.2670 C.3   562  LEU562      0.0297
    128  CG        33.4310    4.0290  142.5610 C.3   562  LEU562      0.0022
    129  CD1       33.7490    2.7080  141.9020 C.3   562  LEU562      0.0001
    130  CD2       33.4230    5.1590  141.5650 C.3   562  LEU562      0.0001
    131  N         34.7620   -5.2470  130.3020 N.3   626  GLY626     -0.1210
    132  CA        35.6290   -5.2390  131.4740 C.3   626  GLY626      0.1956
    133  C         34.8270   -5.2940  132.7620 C.2   626  GLY626      0.2612
    134  O         35.3950   -5.3330  133.8600 O.2   626  GLY626     -0.2717
    135  N         33.4980   -5.2830  132.6280 N.am  627  ASP627     -0.1959
    136  CA        32.5960   -5.3460  133.7770 C.3   627  ASP627      0.1840
    137  C         32.6920   -6.6990  134.4690 C.2   627  ASP627      0.2622
    138  O         33.1260   -7.6860  133.8700 O.2   627  ASP627     -0.2715
    139  CB        31.1330   -5.1710  133.3440 C.3   627  ASP627      0.1450
    140  CG        30.8680   -3.8330  132.7090 C.2   627  ASP627      0.3671
    141  OD1       31.1880   -2.8140  133.3520 O.co2 627  ASP627     -0.2456
    142  OD2       30.3390   -3.7990  131.5710 O.co2 627  ASP627     -0.2456
    143  N         32.2810   -6.7500  135.7300 N.am  628  ASN628     -0.1972
    144  CA        32.2790   -8.0180  136.4290 C.3   628  ASN628      0.1688
    145  C         31.1890   -8.8300  135.7100 C.2   628  ASN628      0.2292
    146  O         30.4130   -8.2840  134.9200 O.2   628  ASN628     -0.2864
    147  CB        31.9230   -7.8210  137.9090 C.3   628  ASN628      0.1181
    148  CG        30.5880   -7.1190  138.0980 C.2   628  ASN628      0.2629
    149  OD1       30.5110   -5.8870  138.1080 O.2   628  ASN628     -0.2716
    150  ND2       29.5290   -7.8990  138.2340 N.am  628  ASN628     -0.0877
    151  N         35.9090   -9.6170  131.9340 N.3   678  ARG678     -0.1245
    152  CA        37.2490   -9.6980  132.5270 C.3   678  ARG678      0.1563
    153  C         38.0610  -10.7200  131.7290 C.2   678  ARG678      0.2260
    154  O         38.5200  -11.7270  132.2560 O.2   678  ARG678     -0.2867
    155  CB        37.1410  -10.1330  133.9990 C.3   678  ARG678      0.0307
    156  CG        36.3210   -9.2020  134.9040 C.3   678  ARG678      0.0489
    157  CD        37.0690   -7.9050  135.1800 C.3   678  ARG678      0.2205
    158  NE        36.3120   -6.9350  135.9700 N.pl3 678  ARG678     -0.0865
    159  CZ        35.9380   -7.1020  137.2390 C.cat 678  ARG678      0.5346
    160  NH1       36.2360   -8.2170  137.8910 N.pl3 678  ARG678      0.1354
    161  NH2       35.2930   -6.1300  137.8690 N.pl3 678  ARG678      0.1354
@<TRIPOS>BOND
     1    13    12    2
     2    12    11    1
     3    10    11    1
     4    11    14    1
     5    14    16    1
     6    14    15    1
     7   131   132    1
     8   132   133    1
     9   142   140   ar
    10   153   154    2
    11   153   152    1
    12   151   152    1
    13     1     2    1
    14   152   155    1
    15     9     7   am
    16   135   133   am
    17   135   136    1
    18   140   139    1
    19   140   141   ar
    20   133   134    2
    21     5     2    1
    22     5     6    1
    23    18    19    1
    24    18    17    1
    25    18    21    1
    26     2     3    1
    27     7     8    2
    28     7     6    1
    29    19    20    2
    30   139   136    1
    31   136   137    1
    32   138   137    2
    33    22    21    1
    34    22    23    1
    35   155   156    1
    36    25    23   ar
    37    62    61    1
    38   137   143   am
    39    26    27    1
    40     3     4    2
    41    23    24   ar
    42   156   157    1
    43   146   145    2
    44   157   158    1
    45    61    63    1
    46    61    60    2
    47   115   114    1
    48    31    30    1
    49   145   144    1
    50   143   144    1
    51   114   116    1
    52   114   113    2
    53    27    30    1
    54    27    28    1
    55   112   113    1
    56   112   111    1
    57   158   159    2
    58    60    59    1
    59    59    58    1
    60    30    32    1
    61   144   147    1
    62   110   111    1
    63   110   107    1
    64    28    33   am
    65    28    29    2
    66    33    34    1
    67   159   161    1
    68   159   160    1
    69    58    57    1
    70   106   107    1
    71    35    34    1
    72    35    36    2
    73   147   148    1
    74   107   108    1
    75    34    37    1
    76   148   149    2
    77   148   150   am
    78    37    38    1
    79    38    39    1
    80    40    39   ar
    81    57    54    1
    82    50    48   ar
    83    50    52   ar
    84    39    41   ar
    85   108   109    2
    86   108   117   am
    87    48    47   ar
    88    52    51   ar
    89    54    53    1
    90    54    55    1
    91    71    72    1
    92    71    70    1
    93   117   118    1
    94    47    46    1
    95    47    49   ar
    96    45    44    2
    97    51    49   ar
    98    55    56    2
    99    46    43    1
   100    44    43    1
   101   130   128    1
   102    70    69    1
   103   118   119    1
   104   118   121    1
   105   129   128    1
   106    69    68    1
   107    43    42    1
   108   120   119    2
   109    89    88    1
   110   122   121    1
   111   119   123   am
   112   128   127    1
   113    79    80    1
   114    79    78    1
   115    68    65    1
   116   123   124    1
   117   127   124    1
   118    88    87    1
   119    65    64    1
   120    65    66    1
   121    87    86    1
   122    98    95    1
   123   124   125    1
   124    95    94    1
   125    95    96    1
   126    66    67    2
   127    78    77    1
   128    77    74    1
   129    94    92   am
   130    86    85    1
   131   105   104    1
   132   105    99    1
   133    92    91    1
   134    92    93    2
   135    91    90    2
   136   104   103    1
   137   125   126    2
   138    96    99   am
   139    96    97    2
   140    74    73    1
   141    74    75    1
   142    99   100    1
   143    90    83    1
   144    85    82    1
   145    84    83    2
   146    83    82    1
   147   103   100    1
   148    82    81    1
   149    75    76    2
   150   100   101    1
   151   101   102    2
