@<TRIPOS>MOLECULE
tmp/3ar5A01.pdb
 172 159 0 0 0
SMALL
GASTEIGER

@<TRIPOS>ATOM
      1  N         44.4790    1.7610  128.9710 N.3   183  GLU183     -0.1245
      2  CA        44.3800    2.7170  130.0820 C.3   183  GLU183      0.1567
      3  C         44.4930    4.1580  129.5170 C.2   183  GLU183      0.2260
      4  O         45.5000    4.5110  128.9150 O.2   183  GLU183     -0.2867
      5  CB        45.4560    2.4360  131.1470 C.3   183  GLU183      0.0388
      6  CG        45.2390    1.1640  131.9930 C.3   183  GLU183      0.1160
      7  CD        46.4730    0.7550  132.8340 C.2   183  GLU183      0.3649
      8  OE1       47.5710    0.5700  132.2410 O.co2 183  GLU183     -0.2457
      9  OE2       46.3470    0.5880  134.0840 O.co2 183  GLU183     -0.2457
     10  N         48.9300   -4.6670  132.6870 N.3   202  GLN202     -0.1245
     11  CA        48.3320   -3.6120  133.4720 C.3   202  GLN202      0.1566
     12  C         48.7190   -3.6780  134.9520 C.2   202  GLN202      0.2260
     13  O         48.6540   -2.6680  135.6670 O.2   202  GLN202     -0.2867
     14  CB        46.8290   -3.7710  133.2990 C.3   202  GLN202      0.0367
     15  CG        46.0350   -2.6610  133.7970 C.3   202  GLN202      0.0905
     16  CD        44.9220   -2.4130  132.8840 C.2   202  GLN202      0.2608
     17  OE1       43.9730   -1.6540  133.1940 O.2   202  GLN202     -0.2717
     18  NE2       44.9780   -3.0710  131.7180 N.am  202  GLN202     -0.0878
     19  N         31.8920   -0.3910  125.5800 N.3   353  THR353     -0.1218
     20  CA        32.0040    1.0280  125.9170 C.3   353  THR353      0.1862
     21  C         32.3470    1.8540  124.6870 C.2   353  THR353      0.2287
     22  O         33.3610    1.6120  124.0420 O.2   353  THR353     -0.2866
     23  CB        32.9920    1.2320  127.0750 C.3   353  THR353      0.1770
     24  OG1       32.4480    0.5630  128.2090 O.3   353  THR353     -0.2211
     25  CG2       33.2180    2.7340  127.3940 C.3   353  THR353      0.0375
     26  N         39.2530    9.7210  133.1200 N.3   439  GLU439     -0.1245
     27  CA        38.4170    8.5380  133.1770 C.3   439  GLU439      0.1567
     28  C         36.9310    8.9340  133.1980 C.2   439  GLU439      0.2260
     29  O         36.5380    9.8830  133.8770 O.2   439  GLU439     -0.2867
     30  CB        38.7980    7.6610  134.3790 C.3   439  GLU439      0.0388
     31  CG        39.5970    6.3960  134.0210 C.3   439  GLU439      0.1160
     32  CD        38.7140    5.2900  133.4510 C.2   439  GLU439      0.3649
     33  OE1       38.5400    4.2580  134.1260 O.co2 439  GLU439     -0.2457
     34  OE2       38.1650    5.4540  132.3390 O.co2 439  GLU439     -0.2457
     35  N         34.1590    7.3020  134.3050 N.3   441  THR441     -0.1203
     36  CA        33.6310    7.0520  135.6410 C.3   441  THR441      0.1994
     37  C         33.9490    8.2020  136.6190 C.2   441  THR441      0.2617
     38  O         33.0900    8.6130  137.3900 O.2   441  THR441     -0.2717
     39  CB        34.1570    5.6860  136.1960 C.3   441  THR441      0.1784
     40  OG1       33.8800    4.6350  135.2650 O.3   441  THR441     -0.2211
     41  CG2       33.4910    5.3060  137.5170 C.3   441  THR441      0.0376
     42  N         35.1720    8.7200  136.5800 N.am  442  GLU442     -0.1979
     43  CA        35.5640    9.8140  137.4840 C.3   442  GLU442      0.1602
     44  C         34.8990   11.1480  137.1320 C.2   442  GLU442      0.2287
     45  O         34.4780   11.8930  138.0180 O.2   442  GLU442     -0.2864
     46  CB        37.0860    9.9770  137.5350 C.3   442  GLU442      0.0415
     47  CG        37.8250    8.7930  138.1500 C.3   442  GLU442      0.1163
     48  CD        39.2260    9.1550  138.6490 C.2   442  GLU442      0.3649
     49  OE1       39.9460    9.8970  137.9380 O.co2 442  GLU442     -0.2457
     50  OE2       39.5990    8.6990  139.7580 O.co2 442  GLU442     -0.2457
     51  N         44.1950    3.5350  141.7310 N.3   487  PHE487     -0.1241
     52  CA        43.3490    2.3720  141.5610 C.3   487  PHE487      0.1605
     53  C         44.1670    1.1950  141.0470 C.2   487  PHE487      0.2264
     54  O         45.0670    1.3780  140.2490 O.2   487  PHE487     -0.2867
     55  CB        42.2140    2.7010  140.5820 C.3   487  PHE487      0.0534
     56  CG        41.2820    1.5500  140.3070 C.ar  487  PHE487     -0.0203
     57  CD1       41.5770    0.6020  139.3140 C.ar  487  PHE487     -0.0042
     58  CD2       40.0960    1.4210  141.0000 C.ar  487  PHE487     -0.0042
     59  CE1       40.6950   -0.4750  139.0420 C.ar  487  PHE487     -0.0003
     60  CE2       39.2040    0.3550  140.7180 C.ar  487  PHE487     -0.0003
     61  CZ        39.5180   -0.5960  139.7510 C.ar  487  PHE487     -0.0000
     62  N         43.5420   -3.2370  140.1250 N.3   489  ARG489     -0.1245
     63  CA        42.4990   -4.1790  139.8870 C.3   489  ARG489      0.1563
     64  C         42.3630   -5.2330  140.9670 C.2   489  ARG489      0.2260
     65  O         41.3370   -5.8780  141.0460 O.2   489  ARG489     -0.2867
     66  CB        42.6390   -4.7790  138.4800 C.3   489  ARG489      0.0307
     67  CG        42.9440   -3.6660  137.4530 C.3   489  ARG489      0.0489
     68  CD        42.5080   -3.9860  136.0390 C.3   489  ARG489      0.2205
     69  NE        43.1790   -5.1600  135.4810 N.pl3 489  ARG489     -0.0865
     70  CZ        43.0240   -5.5840  134.2180 C.cat 489  ARG489      0.5346
     71  NH1       42.2400   -4.9190  133.3690 N.pl3 489  ARG489      0.1354
     72  NH2       43.6540   -6.6740  133.8030 N.pl3 489  ARG489      0.1354
     73  N         40.4810   -2.9820  143.7970 N.3   492  LYS492     -0.1245
     74  CA        39.4010   -2.2900  143.1120 C.3   492  LYS492      0.1561
     75  C         38.9390   -1.0520  143.8910 C.2   492  LYS492      0.2260
     76  O         37.7210   -0.7710  144.0090 O.2   492  LYS492     -0.2867
     77  CB        38.2230   -3.2390  142.8440 C.3   492  LYS492      0.0271
     78  CG        38.6440   -4.5810  142.2000 C.3   492  LYS492      0.0035
     79  CD        37.4420   -5.4620  141.8460 C.3   492  LYS492      0.0206
     80  CE        37.8680   -6.7800  141.1870 C.3   492  LYS492      0.1093
     81  NZ        38.7460   -7.5420  142.1140 N.3   492  LYS492     -0.1314
     82  N         40.5220    3.1700  145.1680 N.3   494  MET494     -0.1245
     83  CA        41.6040    4.1250  145.2500 C.3   494  MET494      0.1570
     84  C         41.2720    5.0980  146.3850 C.2   494  MET494      0.2261
     85  O         40.1110    5.2140  146.8270 O.2   494  MET494     -0.2867
     86  CB        41.7970    4.8340  143.9030 C.3   494  MET494      0.0387
     87  CG        41.0160    6.1120  143.7710 C.3   494  MET494      0.0595
     88  SD        41.4390    7.0920  142.3240 S.3   494  MET494     -0.1393
     89  CE        41.7050    8.6840  143.0650 C.3   494  MET494      0.0692
     90  N         37.3230    5.5100  147.3400 N.3   515  LYS515     -0.1231
     91  CA        36.2560    5.2030  146.4140 C.3   515  LYS515      0.1693
     92  C         36.5930    3.9080  145.6540 C.2   515  LYS515      0.2593
     93  O         37.7630    3.6380  145.3390 O.2   515  LYS515     -0.2718
     94  CB        36.1000    6.4040  145.4990 C.3   515  LYS515      0.0285
     95  CG        35.7870    6.0770  144.1420 C.3   515  LYS515      0.0035
     96  CD        35.9620    7.2930  143.2520 C.3   515  LYS515      0.0206
     97  CE        37.3820    7.3180  142.7470 C.3   515  LYS515      0.1093
     98  NZ        37.4340    7.9720  141.4390 N.3   515  LYS515     -0.1314
     99  N         35.6030    3.0690  145.4080 N.am  516  GLY516     -0.1942
    100  CA        35.8740    1.8310  144.6890 C.3   516  GLY516      0.2014
    101  C         34.6700    0.9280  144.5030 C.2   516  GLY516      0.2638
    102  O         33.5420    1.2690  144.8760 O.2   516  GLY516     -0.2714
    103  N         34.9110   -0.2310  143.8930 N.am  517  ALA517     -0.1977
    104  CA        33.9070   -1.2830  143.7630 C.3   517  ALA517      0.1597
    105  C         33.3930   -1.6300  145.1390 C.2   517  ALA517      0.2287
    106  O         34.1710   -1.8010  146.0650 O.2   517  ALA517     -0.2864
    107  CB        34.4900   -2.5100  143.0600 C.3   517  ALA517      0.0319
    108  N         26.6380    1.0720  137.0820 N.3   560  ARG560     -0.1245
    109  CA        27.9130    0.8440  137.7860 C.3   560  ARG560      0.1563
    110  C         27.8770    1.5150  139.1540 C.2   560  ARG560      0.2260
    111  O         27.6560    2.7310  139.2580 O.2   560  ARG560     -0.2867
    112  CB        29.0650    1.4050  136.9590 C.3   560  ARG560      0.0307
    113  CG        30.4630    1.1090  137.5360 C.3   560  ARG560      0.0489
    114  CD        31.5340    1.5290  136.5570 C.3   560  ARG560      0.2205
    115  NE        31.4880    0.6960  135.3580 N.pl3 560  ARG560     -0.0865
    116  CZ        32.1760    0.9180  134.2340 C.cat 560  ARG560      0.5346
    117  NH1       33.0130    1.9590  134.1410 N.pl3 560  ARG560      0.1354
    118  NH2       32.0410    0.0740  133.2140 N.pl3 560  ARG560      0.1354
    119  N         29.7710    2.6110  142.7790 N.3   562  LEU562     -0.1245
    120  CA        30.9390    2.8320  143.5590 C.3   562  LEU562      0.1561
    121  C         30.5410    3.1070  145.0170 C.2   562  LEU562      0.2260
    122  O         29.6670    3.9540  145.2760 O.2   562  LEU562     -0.2867
    123  CB        31.6310    4.0660  143.0040 C.3   562  LEU562      0.0270
    124  CG        32.8860    4.0120  142.1200 C.3   562  LEU562      0.0019
    125  CD1       33.1960    2.6120  141.4980 C.3   562  LEU562      0.0001
    126  CD2       32.7110    5.0740  141.0440 C.3   562  LEU562      0.0001
    127  N         33.0290   -6.6850  127.5730 N.3   625  THR625     -0.1203
    128  CA        32.9130   -5.5570  128.4650 C.3   625  THR625      0.1994
    129  C         33.8340   -5.6580  129.6970 C.2   625  THR625      0.2618
    130  O         34.2580   -6.7620  130.0920 O.2   625  THR625     -0.2717
    131  CB        31.4060   -5.3310  128.8800 C.3   625  THR625      0.1784
    132  OG1       31.3080   -4.0730  129.5510 O.3   625  THR625     -0.2211
    133  CG2       30.8820   -6.4300  129.7980 C.3   625  THR625      0.0376
    134  N         34.1330   -4.5100  130.3010 N.am  626  GLY626     -0.1942
    135  CA        34.9080   -4.4620  131.5510 C.3   626  GLY626      0.2014
    136  C         34.0640   -4.3390  132.8150 C.2   626  GLY626      0.2638
    137  O         34.6010   -4.3700  133.9350 O.2   626  GLY626     -0.2714
    138  N         32.7370   -4.2100  132.6450 N.am  627  ASP627     -0.1971
    139  CA        31.8000   -4.3180  133.7660 C.3   627  ASP627      0.1709
    140  C         32.0210   -5.6550  134.5080 C.2   627  ASP627      0.2293
    141  O         32.4400   -6.6650  133.8990 O.2   627  ASP627     -0.2864
    142  CB        30.3490   -4.3040  133.2290 C.3   627  ASP627      0.1436
    143  CG        29.9570   -2.9500  132.6040 C.2   627  ASP627      0.3671
    144  OD1       29.8630   -1.9220  133.3280 O.co2 627  ASP627     -0.2456
    145  OD2       29.7530   -2.9100  131.3730 O.co2 627  ASP627     -0.2456
    146  N         35.4020   -8.7500  131.7630 N.3   678  ARG678     -0.1231
    147  CA        36.7350   -8.6990  132.3640 C.3   678  ARG678      0.1694
    148  C         37.6010   -9.8260  131.7670 C.2   678  ARG678      0.2592
    149  O         37.8750  -10.8660  132.3850 O.2   678  ARG678     -0.2718
    150  CB        36.6390   -8.7590  133.8950 C.3   678  ARG678      0.0321
    151  CG        35.6050   -7.7840  134.4350 C.3   678  ARG678      0.0489
    152  CD        36.0740   -7.1730  135.6770 C.3   678  ARG678      0.2205
    153  NE        35.2690   -6.0590  136.1390 N.pl3 678  ARG678     -0.0865
    154  CZ        35.0050   -5.8330  137.4250 C.cat 678  ARG678      0.5346
    155  NH1       35.4480   -6.6530  138.3500 N.pl3 678  ARG678      0.1354
    156  NH2       34.3000   -4.7770  137.7880 N.pl3 678  ARG678      0.1354
    157  N         37.9980   -9.5730  130.5360 N.am  679  VAL679     -0.1966
    158  CA        38.7160  -10.5040  129.7330 C.3   679  VAL679      0.1727
    159  C         40.0100   -9.8190  129.3050 C.2   679  VAL679      0.2616
    160  O         40.1030   -8.5860  129.3680 O.2   679  VAL679     -0.2715
    161  CB        37.8560  -10.8360  128.5440 C.3   679  VAL679      0.0290
    162  CG1       38.3580  -10.1140  127.2920 C.3   679  VAL679      0.0023
    163  CG2       37.7910  -12.3040  128.3750 C.3   679  VAL679      0.0023
    164  N         41.0320  -10.5910  128.9170 N.am  680  GLU680     -0.1977
    165  CA        42.3080   -9.9790  128.5340 C.3   680  GLU680      0.1602
    166  C         42.4550   -9.9660  127.0030 C.2   680  GLU680      0.2287
    167  O         41.6430  -10.5510  126.2940 O.2   680  GLU680     -0.2864
    168  CB        43.5010  -10.6810  129.2280 C.3   680  GLU680      0.0415
    169  CG        43.3250  -11.0060  130.7450 C.3   680  GLU680      0.1163
    170  CD        42.9890   -9.7810  131.6620 C.2   680  GLU680      0.3649
    171  OE1       43.5030   -8.6400  131.4300 O.co2 680  GLU680     -0.2457
    172  OE2       42.2110   -9.9710  132.6500 O.co2 680  GLU680     -0.2457
@<TRIPOS>BOND
     1    22    21    2
     2    21    20    1
     3    19    20    1
     4    20    23    1
     5   167   166    2
     6   166   165    1
     7    23    25    1
     8    23    24    1
     9   162   161    1
    10   127   128    1
    11   163   161    1
    12   128   131    1
    13   128   129    1
    14   165   164    1
    15   165   168    1
    16   161   158    1
    17   131   132    1
    18   131   133    1
    19     4     3    2
    20   164   159   am
    21     1     2    1
    22   168   169    1
    23   159   160    2
    24   159   158    1
    25     3     2    1
    26   129   130    2
    27   129   134   am
    28   158   157    1
    29     2     5    1
    30   134   135    1
    31   157   148   am
    32   169   170    1
    33     5     6    1
    34   145   143   ar
    35   171   170   ar
    36   135   136    1
    37   170   172   ar
    38    18    16   am
    39   146   147    1
    40   148   147    1
    41   148   149    2
    42     6     7    1
    43     8     7   ar
    44    34    32   ar
    45   147   150    1
    46   143   142    1
    47   143   144   ar
    48   138   136   am
    49   138   139    1
    50    10    11    1
    51   136   137    2
    52     7     9   ar
    53    16    17    2
    54    16    15    1
    55    26    27    1
    56    27    28    1
    57    27    30    1
    58    28    29    2
    59   118   116    1
    60   142   139    1
    61    14    11    1
    62    14    15    1
    63    71    70    1
    64    32    31    1
    65    32    33   ar
    66    11    12    1
    67   139   140    1
    68    72    70    1
    69   150   151    1
    70   141   140    2
    71    31    30    1
    72   117   116    1
    73    70    69    2
    74   116   115    2
    75    35    36    1
    76   151   152    1
    77    12    13    2
    78    40    39    1
    79   115   114    1
    80    69    68    1
    81    36    39    1
    82    36    37    1
    83   152   153    1
    84    68    67    1
    85   153   154    2
    86    39    41    1
    87   114   113    1
    88    42    37   am
    89    42    43    1
    90    37    38    2
    91   112   113    1
    92   112   109    1
    93   108   109    1
    94    44    43    1
    95    44    45    2
    96   154   156    1
    97   154   155    1
    98    67    66    1
    99    43    46    1
   100    46    47    1
   101   109   110    1
   102    49    48   ar
   103    47    48    1
   104    66    63    1
   105    48    50   ar
   106    59    57   ar
   107    59    61   ar
   108   110   111    2
   109    57    56   ar
   110    61    60   ar
   111    63    62    1
   112    63    64    1
   113    54    53    2
   114    56    55    1
   115    56    58   ar
   116    55    52    1
   117    60    58   ar
   118    64    65    2
   119   126   124    1
   120    53    52    1
   121    80    79    1
   122    80    81    1
   123    98    97    1
   124   125   124    1
   125    52    51    1
   126    79    78    1
   127   124   123    1
   128    78    77    1
   129    88    89    1
   130    88    87    1
   131    97    96    1
   132   119   120    1
   133    77    74    1
   134   123   120    1
   135   107   104    1
   136    74    73    1
   137    74    75    1
   138    96    95    1
   139   120   121    1
   140   104   103    1
   141   104   105    1
   142    87    86    1
   143    75    76    2
   144   103   101   am
   145    86    83    1
   146    95    94    1
   147   101   100    1
   148   101   102    2
   149   100    99    1
   150   121   122    2
   151   105   106    2
   152    82    83    1
   153    83    84    1
   154    93    92    2
   155    99    92   am
   156    94    91    1
   157    92    91    1
   158    84    85    2
   159    91    90    1
