@<TRIPOS>MOLECULE
tmp/3ar6A01.pdb
 175 162 0 0 0
SMALL
GASTEIGER

@<TRIPOS>ATOM
      1  N         44.9600   -0.0820  126.5820 N.3   182  GLY182     -0.1225
      2  CA        43.7090    0.6440  126.4690 C.3   182  GLY182      0.1811
      3  C         43.3960    1.5410  127.6590 C.2   182  GLY182      0.2280
      4  O         42.2380    1.9270  127.8690 O.2   182  GLY182     -0.2866
      5  N         48.6730   -4.5840  132.4770 N.3   202  GLN202     -0.1245
      6  CA        48.1350   -3.5200  133.3270 C.3   202  GLN202      0.1566
      7  C         48.5660   -3.6400  134.7730 C.2   202  GLN202      0.2260
      8  O         48.5330   -2.6620  135.5200 O.2   202  GLN202     -0.2867
      9  CB        46.6050   -3.4970  133.2860 C.3   202  GLN202      0.0367
     10  CG        46.0280   -2.8240  132.0810 C.3   202  GLN202      0.0905
     11  CD        44.5170   -2.8490  132.0970 C.2   202  GLN202      0.2608
     12  OE1       43.8820   -2.4100  133.0680 O.2   202  GLN202     -0.2717
     13  NE2       43.9250   -3.3630  131.0210 N.am  202  GLN202     -0.0878
     14  N         31.7840   -3.0760  124.1520 N.3   352  LYS352     -0.1231
     15  CA        30.6160   -2.3110  124.5620 C.3   352  LYS352      0.1693
     16  C         30.7690   -0.7890  124.5580 C.2   352  LYS352      0.2592
     17  O         30.0290   -0.0800  123.8730 O.2   352  LYS352     -0.2718
     18  CB        30.1670   -2.7290  125.9670 C.3   352  LYS352      0.0285
     19  CG        28.8030   -2.1490  126.3580 C.3   352  LYS352      0.0035
     20  CD        28.6250   -1.9940  127.8620 C.3   352  LYS352      0.0206
     21  CE        29.3970   -0.7740  128.3990 C.3   352  LYS352      0.1093
     22  NZ        29.1330   -0.4950  129.8520 N.3   352  LYS352     -0.1314
     23  N         31.7420   -0.3050  125.3220 N.am  353  THR353     -0.1953
     24  CA        31.9840    1.1330  125.5220 C.3   353  THR353      0.1897
     25  C         32.2800    2.0230  124.3230 C.2   353  THR353      0.2313
     26  O         33.3500    1.9530  123.7210 O.2   353  THR353     -0.2863
     27  CB        33.0950    1.3220  126.5930 C.3   353  THR353      0.1794
     28  OG1       32.7360    0.5790  127.7610 O.3   353  THR353     -0.2208
     29  CG2       33.2530    2.8040  126.9910 C.3   353  THR353      0.0378
     30  N         39.0390   10.3080  132.9440 N.3   439  GLU439     -0.1245
     31  CA        38.2340    9.0940  132.8350 C.3   439  GLU439      0.1567
     32  C         36.7440    9.4550  132.8240 C.2   439  GLU439      0.2260
     33  O         36.3040   10.3750  133.5180 O.2   439  GLU439     -0.2867
     34  CB        38.5350    8.1560  134.0090 C.3   439  GLU439      0.0388
     35  CG        37.6570    6.9090  134.0720 C.3   439  GLU439      0.1160
     36  CD        38.1100    5.8030  133.1260 C.2   439  GLU439      0.3649
     37  OE1       38.2840    6.0830  131.9200 O.co2 439  GLU439     -0.2457
     38  OE2       38.2850    4.6500  133.5900 O.co2 439  GLU439     -0.2457
     39  N         34.2600    7.7970  134.0290 N.3   441  THR441     -0.1203
     40  CA        33.6590    7.5300  135.3260 C.3   441  THR441      0.1994
     41  C         33.9460    8.6340  136.3450 C.2   441  THR441      0.2617
     42  O         33.0470    9.0570  137.0780 O.2   441  THR441     -0.2717
     43  CB        34.1510    6.1970  135.9010 C.3   441  THR441      0.1784
     44  OG1       33.8060    5.1420  134.9980 O.3   441  THR441     -0.2211
     45  CG2       33.5020    5.9240  137.2520 C.3   441  THR441      0.0376
     46  N         35.1910    9.0990  136.3960 N.am  442  GLU442     -0.1979
     47  CA        35.5370   10.1490  137.3400 C.3   442  GLU442      0.1602
     48  C         34.8620   11.4600  136.9870 C.2   442  GLU442      0.2287
     49  O         34.3390   12.1440  137.8660 O.2   442  GLU442     -0.2864
     50  CB        37.0520   10.3540  137.4090 C.3   442  GLU442      0.0415
     51  CG        37.7880    9.2510  138.1390 C.3   442  GLU442      0.1163
     52  CD        39.2370    9.6140  138.4290 C.2   442  GLU442      0.3649
     53  OE1       39.9200   10.1140  137.5050 O.co2 442  GLU442     -0.2457
     54  OE2       39.6890    9.3920  139.5770 O.co2 442  GLU442     -0.2457
     55  N         44.3160    3.6560  141.8570 N.3   487  PHE487     -0.1241
     56  CA        43.4700    2.4780  141.7080 C.3   487  PHE487      0.1605
     57  C         44.2600    1.2380  141.2860 C.2   487  PHE487      0.2264
     58  O         45.1780    1.3080  140.4710 O.2   487  PHE487     -0.2867
     59  CB        42.3620    2.7640  140.6780 C.3   487  PHE487      0.0534
     60  CG        41.4670    1.5840  140.3930 C.ar  487  PHE487     -0.0203
     61  CD1       41.7710    0.6890  139.3730 C.ar  487  PHE487     -0.0042
     62  CD2       40.3320    1.3620  141.1570 C.ar  487  PHE487     -0.0042
     63  CE1       40.9530   -0.4120  139.1200 C.ar  487  PHE487     -0.0003
     64  CE2       39.5070    0.2660  140.9150 C.ar  487  PHE487     -0.0003
     65  CZ        39.8160   -0.6210  139.8980 C.ar  487  PHE487     -0.0000
     66  N         43.6130   -3.0030  140.2930 N.3   489  ARG489     -0.1245
     67  CA        42.6570   -4.0600  139.9950 C.3   489  ARG489      0.1563
     68  C         42.3870   -5.0510  141.0980 C.2   489  ARG489      0.2260
     69  O         41.2700   -5.5350  141.2290 O.2   489  ARG489     -0.2867
     70  CB        43.0850   -4.8300  138.7510 C.3   489  ARG489      0.0307
     71  CG        42.9220   -4.0490  137.4730 C.3   489  ARG489      0.0489
     72  CD        43.2650   -4.9280  136.3020 C.3   489  ARG489      0.2205
     73  NE        42.8040   -4.3430  135.0510 N.pl3 489  ARG489     -0.0865
     74  CZ        42.7660   -4.9980  133.8980 C.cat 489  ARG489      0.5346
     75  NH1       42.3250   -4.3830  132.8120 N.pl3 489  ARG489      0.1354
     76  NH2       43.1700   -6.2610  133.8360 N.pl3 489  ARG489      0.1354
     77  N         40.5480   -2.9780  143.8840 N.3   492  LYS492     -0.1245
     78  CA        39.4070   -2.3370  143.2300 C.3   492  LYS492      0.1561
     79  C         38.9290   -1.0720  143.9340 C.2   492  LYS492      0.2260
     80  O         37.7190   -0.8510  144.0950 O.2   492  LYS492     -0.2867
     81  CB        38.2460   -3.3300  143.1150 C.3   492  LYS492      0.0271
     82  CG        38.6000   -4.6050  142.3540 C.3   492  LYS492      0.0035
     83  CD        37.4990   -5.6540  142.4770 C.3   492  LYS492      0.0206
     84  CE        37.8500   -6.9160  141.7060 C.3   492  LYS492      0.1093
     85  NZ        39.1650   -7.4850  142.1460 N.3   492  LYS492     -0.1314
     86  N         40.5960    3.1770  145.2480 N.3   494  MET494     -0.1245
     87  CA        41.6560    4.1590  145.2460 C.3   494  MET494      0.1570
     88  C         41.3250    5.1050  146.3910 C.2   494  MET494      0.2261
     89  O         40.2770    4.9890  147.0180 O.2   494  MET494     -0.2867
     90  CB        41.7170    4.9110  143.9130 C.3   494  MET494      0.0387
     91  CG        40.6760    5.9820  143.7600 C.3   494  MET494      0.0595
     92  SD        40.9610    6.9790  142.3200 S.3   494  MET494     -0.1393
     93  CE        41.8270    8.3420  143.0250 C.3   494  MET494      0.0692
     94  N         37.2940    5.5260  147.2910 N.3   515  LYS515     -0.1231
     95  CA        36.3360    5.2970  146.2160 C.3   515  LYS515      0.1696
     96  C         36.6800    3.9610  145.5220 C.2   515  LYS515      0.2632
     97  O         37.8590    3.6600  145.2820 O.2   515  LYS515     -0.2714
     98  CB        36.4700    6.4420  145.2200 C.3   515  LYS515      0.0285
     99  CG        35.4770    6.4720  144.1140 C.3   515  LYS515      0.0035
    100  CD        35.8750    7.5070  143.0850 C.3   515  LYS515      0.0206
    101  CE        37.2190    7.1610  142.4930 C.3   515  LYS515      0.1093
    102  NZ        37.5320    7.9370  141.2810 N.3   515  LYS515     -0.1314
    103  N         35.6680    3.1600  145.2040 N.am  516  GLY516     -0.1718
    104  CA        35.9270    1.8990  144.5220 C.2   516  GLY516      0.1480
    105  C         34.7580    0.9410  144.3640 C.2   516  GLY516      0.2820
    106  O         33.6320    1.2470  144.7540 O.2   516  GLY516     -0.2669
    107  N         35.0270   -0.2250  143.7770 N.am  517  ALA517     -0.1943
    108  CA        34.0040   -1.2460  143.5870 C.3   517  ALA517      0.1600
    109  C         33.4100   -1.5300  144.9420 C.2   517  ALA517      0.2287
    110  O         34.1220   -1.6900  145.9200 O.2   517  ALA517     -0.2864
    111  CB        34.6100   -2.5160  142.9980 C.3   517  ALA517      0.0319
    112  N         26.6370    1.1890  137.0300 N.3   560  ARG560     -0.1231
    113  CA        27.9400    0.8630  137.6120 C.3   560  ARG560      0.1694
    114  C         27.9380    1.5560  138.9810 C.2   560  ARG560      0.2592
    115  O         27.8130    2.7880  139.0770 O.2   560  ARG560     -0.2718
    116  CB        29.0630    1.4280  136.7440 C.3   560  ARG560      0.0321
    117  CG        30.4400    1.4280  137.4100 C.3   560  ARG560      0.0489
    118  CD        31.5130    1.6910  136.3670 C.3   560  ARG560      0.2205
    119  NE        31.5570    0.5990  135.3920 N.pl3 560  ARG560     -0.0865
    120  CZ        32.1440    0.6770  134.2040 C.cat 560  ARG560      0.5346
    121  NH1       32.7430    1.8010  133.8310 N.pl3 560  ARG560      0.1354
    122  NH2       32.1290   -0.3690  133.3910 N.pl3 560  ARG560      0.1354
    123  N         28.0460    0.7710  140.0420 N.am  561  CYS561     -0.1956
    124  CA        28.0510    1.3320  141.3800 C.3   561  CYS561      0.1843
    125  C         29.4660    1.5320  141.9500 C.2   561  CYS561      0.2625
    126  O         30.3680    0.7520  141.6920 O.2   561  CYS561     -0.2714
    127  CB        27.2390    0.4340  142.3140 C.3   561  CYS561      0.0997
    128  SG        25.4850    0.2610  141.8200 S.3   561  CYS561     -0.0797
    129  N         29.6330    2.6100  142.7080 N.am  562  LEU562     -0.1977
    130  CA        30.8860    2.9380  143.3690 C.3   562  LEU562      0.1596
    131  C         30.5690    3.2300  144.8450 C.2   562  LEU562      0.2287
    132  O         29.6780    4.0350  145.1590 O.2   562  LEU562     -0.2864
    133  CB        31.5050    4.1750  142.7160 C.3   562  LEU562      0.0297
    134  CG        32.8200    4.0250  141.9580 C.3   562  LEU562      0.0022
    135  CD1       32.8870    2.6440  141.3030 C.3   562  LEU562      0.0001
    136  CD2       32.9450    5.1430  140.9380 C.3   562  LEU562      0.0001
    137  N         31.5690   -7.8280  124.3340 N.3   624  ILE624     -0.1231
    138  CA        32.8140   -7.8850  125.0990 C.3   624  ILE624      0.1692
    139  C         32.8920   -6.6010  125.9440 C.2   624  ILE624      0.2593
    140  O         32.8470   -5.4880  125.4060 O.2   624  ILE624     -0.2718
    141  CB        34.0300   -7.9700  124.1620 C.3   624  ILE624      0.0266
    142  CG1       33.9800   -9.3000  123.3910 C.3   624  ILE624      0.0019
    143  CG2       35.3230   -7.8600  124.9780 C.3   624  ILE624      0.0020
    144  CD1       35.2560   -9.6300  122.6520 C.3   624  ILE624      0.0001
    145  N         32.9950   -6.7520  127.2630 N.am  625  THR625     -0.1939
    146  CA        33.0210   -5.5830  128.1280 C.3   625  THR625      0.2028
    147  C         33.8870   -5.6440  129.4010 C.2   625  THR625      0.2642
    148  O         34.2310   -6.7260  129.8900 O.2   625  THR625     -0.2714
    149  CB        31.5910   -5.2300  128.5740 C.3   625  THR625      0.1808
    150  OG1       31.6180   -4.0250  129.3480 O.3   625  THR625     -0.2208
    151  CG2       30.9980   -6.3730  129.4200 C.3   625  THR625      0.0379
    152  N         34.1810   -4.4570  129.9440 N.am  626  GLY626     -0.1954
    153  CA        34.9710   -4.3290  131.1690 C.3   626  GLY626      0.1869
    154  C         34.1270   -4.3670  132.4390 C.2   626  GLY626      0.2309
    155  O         34.6640   -4.4410  133.5590 O.2   626  GLY626     -0.2863
    156  N         35.2970   -8.7950  131.3650 N.3   678  ARG678     -0.1245
    157  CA        36.6530   -8.7850  131.8930 C.3   678  ARG678      0.1563
    158  C         37.5430   -9.8930  131.3160 C.2   678  ARG678      0.2260
    159  O         37.8330  -10.8870  131.9640 O.2   678  ARG678     -0.2867
    160  CB        36.5840   -8.8340  133.4220 C.3   678  ARG678      0.0307
    161  CG        35.9040   -7.5820  133.9430 C.3   678  ARG678      0.0489
    162  CD        35.8700   -7.4280  135.4470 C.3   678  ARG678      0.2205
    163  NE        35.4640   -6.0580  135.7720 N.pl3 678  ARG678     -0.0865
    164  CZ        35.0430   -5.6440  136.9650 C.cat 678  ARG678      0.5346
    165  NH1       34.9570   -6.4870  137.9820 N.pl3 678  ARG678      0.1354
    166  NH2       34.7060   -4.3750  137.1330 N.pl3 678  ARG678      0.1354
    167  N         41.1650  -10.5980  128.7340 N.3   680  GLU680     -0.1245
    168  CA        42.4050   -9.9440  128.3400 C.3   680  GLU680      0.1567
    169  C         42.4680   -9.9160  126.8080 C.2   680  GLU680      0.2260
    170  O         41.6390  -10.5330  126.1380 O.2   680  GLU680     -0.2867
    171  CB        43.6060  -10.7010  128.9150 C.3   680  GLU680      0.0388
    172  CG        43.5650  -10.9100  130.4280 C.3   680  GLU680      0.1160
    173  CD        43.1300   -9.6680  131.2030 C.2   680  GLU680      0.3649
    174  OE1       43.6070   -8.5490  130.8830 O.co2 680  GLU680     -0.2457
    175  OE2       42.3130   -9.8140  132.1460 O.co2 680  GLU680     -0.2457
@<TRIPOS>BOND
     1   144   142    1
     2   142   141    1
     3    26    25    2
     4    17    16    2
     5    14    15    1
     6   141   143    1
     7   141   138    1
     8    25    24    1
     9   137   138    1
    10    16    15    1
    11    16    23   am
    12    15    18    1
    13   138   139    1
    14    23    24    1
    15   140   139    2
    16    24    27    1
    17   139   145   am
    18    18    19    1
    19   170   169    2
    20    19    20    1
    21     2     1    1
    22     2     3    1
    23    27    29    1
    24    27    28    1
    25   169   168    1
    26   145   146    1
    27     3     4    2
    28    20    21    1
    29   146   149    1
    30   146   147    1
    31   168   167    1
    32   168   171    1
    33    21    22    1
    34   149   150    1
    35   149   151    1
    36   171   172    1
    37   147   148    2
    38   147   152   am
    39   152   153    1
    40   172   173    1
    41   174   173   ar
    42    13    11   am
    43   153   154    1
    44   173   175   ar
    45   158   157    1
    46   158   159    2
    47   156   157    1
    48   157   160    1
    49    37    36   ar
    50    10    11    1
    51    10     9    1
    52    11    12    2
    53   154   155    2
    54     5     6    1
    55    75    74    1
    56    32    31    1
    57    32    33    2
    58    31    30    1
    59    31    34    1
    60    36    38   ar
    61    36    35    1
    62     9     6    1
    63     6     7    1
    64   122   120    1
    65   160   161    1
    66   121   120    1
    67    76    74    1
    68    74    73    2
    69   161   162    1
    70    34    35    1
    71    39    40    1
    72   120   119    2
    73     7     8    2
    74    44    43    1
    75    73    72    1
    76    40    43    1
    77    40    41    1
    78   119   118    1
    79   162   163    1
    80   163   164    2
    81    43    45    1
    82    72    71    1
    83    41    46   am
    84    41    42    2
    85   118   117    1
    86    46    47    1
    87   116   117    1
    88   116   113    1
    89   164   166    1
    90   164   165    1
    91    48    47    1
    92    48    49    2
    93   112   113    1
    94    47    50    1
    95    50    51    1
    96    71    70    1
    97    53    52   ar
    98   113   114    1
    99    51    52    1
   100    52    54   ar
   101    70    67    1
   102   114   115    2
   103   114   123   am
   104    63    61   ar
   105    63    65   ar
   106    61    60   ar
   107    65    64   ar
   108    67    66    1
   109    67    68    1
   110   123   124    1
   111    60    59    1
   112    60    62   ar
   113    58    57    2
   114    59    56    1
   115    64    62   ar
   116   136   134    1
   117    68    69    2
   118   102   101    1
   119    57    56    1
   120   135   134    1
   121   124   125    1
   122   124   127    1
   123   126   125    2
   124    84    85    1
   125    84    83    1
   126    56    55    1
   127   128   127    1
   128   125   129   am
   129   134   133    1
   130    92    93    1
   131    92    91    1
   132    82    83    1
   133    82    81    1
   134   101   100    1
   135   129   130    1
   136   133   130    1
   137   111   108    1
   138   100    99    1
   139    81    78    1
   140    78    77    1
   141    78    79    1
   142   130   131    1
   143   108   107    1
   144   108   109    1
   145    91    90    1
   146   107   105   am
   147    90    87    1
   148    79    80    2
   149    99    98    1
   150   105   104    1
   151   105   106    2
   152   104   103    2
   153   131   132    2
   154   109   110    2
   155   103    96    1
   156    98    95    1
   157    87    86    1
   158    87    88    1
   159    97    96    2
   160    96    95    1
   161    95    94    1
   162    88    89    2
