@<TRIPOS>MOLECULE
tmp/3ar8A00.pdb
 177 167 0 0 0
SMALL
GASTEIGER

@<TRIPOS>ATOM
      1  N         35.1940   63.5080  131.0710 N.3   174  ARG174     -0.1245
      2  CA        34.1950   64.3730  130.4700 C.3   174  ARG174      0.1563
      3  C         34.2190   64.1720  128.9650 C.2   174  ARG174      0.2260
      4  O         35.2790   64.2270  128.3540 O.2   174  ARG174     -0.2867
      5  CB        34.4820   65.8350  130.8290 C.3   174  ARG174      0.0307
      6  CG        33.8770   66.2890  132.1570 C.3   174  ARG174      0.0489
      7  CD        34.9170   66.7850  133.1700 C.3   174  ARG174      0.2205
      8  NE        34.4870   68.0160  133.8390 N.pl3 174  ARG174     -0.0865
      9  CZ        35.0770   68.5550  134.9070 C.cat 174  ARG174      0.5346
     10  NH1       36.1360   67.9830  135.4570 N.pl3 174  ARG174      0.1354
     11  NH2       34.6040   69.6790  135.4310 N.pl3 174  ARG174      0.1354
     12  N         27.6560   69.9640  125.4170 N.3   185  VAL185     -0.1231
     13  CA        27.9060   69.8370  126.8560 C.3   185  VAL185      0.1692
     14  C         28.6340   68.5330  127.2080 C.2   185  VAL185      0.2593
     15  O         28.3950   67.4890  126.6030 O.2   185  VAL185     -0.2718
     16  CB        26.5790   69.9090  127.6740 C.3   185  VAL185      0.0266
     17  CG1       25.7330   68.6800  127.4260 C.3   185  VAL185      0.0020
     18  CG2       26.8780   70.0220  129.1530 C.3   185  VAL185      0.0020
     19  N         29.5210   68.6020  128.1940 N.am  186  SER186     -0.1938
     20  CA        30.2840   67.4420  128.6300 C.3   186  SER186      0.2055
     21  C         29.4520   66.4050  129.3590 C.2   186  SER186      0.2643
     22  O         28.6660   66.7270  130.2480 O.2   186  SER186     -0.2714
     23  CB        31.4350   67.8710  129.5350 C.3   186  SER186      0.2130
     24  OG        32.5080   68.3690  128.7620 O.3   186  SER186     -0.2179
     25  N         29.6380   65.1500  128.9680 N.am  187  VAL187     -0.1963
     26  CA        28.9310   64.0340  129.5770 C.3   187  VAL187      0.1727
     27  C         29.9240   63.3790  130.5220 C.2   187  VAL187      0.2616
     28  O         31.1000   63.2250  130.1840 O.2   187  VAL187     -0.2715
     29  CB        28.4570   63.0250  128.4950 C.3   187  VAL187      0.0290
     30  CG1       28.0020   61.6990  129.1370 C.3   187  VAL187      0.0023
     31  CG2       27.3190   63.6450  127.6990 C.3   187  VAL187      0.0023
     32  N         29.4530   63.0310  131.7150 N.am  188  ILE188     -0.1977
     33  CA        30.2940   62.3940  132.7240 C.3   188  ILE188      0.1596
     34  C         30.1530   60.8810  132.6620 C.2   188  ILE188      0.2287
     35  O         29.0750   60.3290  132.8640 O.2   188  ILE188     -0.2864
     36  CB        29.9200   62.8750  134.1570 C.3   188  ILE188      0.0276
     37  CG1       30.1970   64.3740  134.2820 C.3   188  ILE188      0.0022
     38  CG2       30.7040   62.1040  135.2040 C.3   188  ILE188      0.0022
     39  CD1       31.5140   64.7950  133.6650 C.3   188  ILE188      0.0001
     40  N         26.3250   55.7520  129.8910 N.3   205  LYS205     -0.1245
     41  CA        27.3890   56.5700  130.4550 C.3   205  LYS205      0.1561
     42  C         28.6330   55.7870  130.8020 C.2   205  LYS205      0.2260
     43  O         29.5790   56.3400  131.3700 O.2   205  LYS205     -0.2867
     44  CB        26.8580   57.3370  131.6700 C.3   205  LYS205      0.0271
     45  CG        25.6860   58.2530  131.3000 C.3   205  LYS205      0.0035
     46  CD        24.9640   58.7960  132.5180 C.3   205  LYS205      0.0206
     47  CE        23.8520   59.7430  132.1050 C.3   205  LYS205      0.1093
     48  NZ        23.1990   60.4120  133.2720 N.3   205  LYS205     -0.1314
     49  N         34.1380   74.6190  128.3160 N.3   439  GLU439     -0.1245
     50  CA        32.7430   74.1910  128.4910 C.3   439  GLU439      0.1567
     51  C         31.7470   75.3270  128.2630 C.2   439  GLU439      0.2260
     52  O         31.9300   76.4370  128.7560 O.2   439  GLU439     -0.2867
     53  CB        32.5330   73.6400  129.9030 C.3   439  GLU439      0.0388
     54  CG        32.4220   72.1110  130.0100 C.3   439  GLU439      0.1160
     55  CD        31.1320   71.5570  129.3960 C.2   439  GLU439      0.3649
     56  OE1       31.0240   71.5520  128.1510 O.co2 439  GLU439     -0.2457
     57  OE2       30.2220   71.1370  130.1530 O.co2 439  GLU439     -0.2457
     58  N         28.8560   75.6760  129.4930 N.3   441  THR441     -0.1203
     59  CA        28.3280   76.0430  130.8010 C.3   441  THR441      0.1994
     60  C         29.2110   77.0330  131.5490 C.2   441  THR441      0.2617
     61  O         28.7390   77.8330  132.3540 O.2   441  THR441     -0.2717
     62  CB        28.1730   74.7840  131.6650 C.3   441  THR441      0.1784
     63  OG1       27.0980   73.9970  131.1460 O.3   441  THR441     -0.2211
     64  CG2       27.8970   75.1390  133.1100 C.3   441  THR441      0.0376
     65  N         30.5090   76.9630  131.2990 N.am  442  GLU442     -0.1979
     66  CA        31.4150   77.8430  131.9860 C.3   442  GLU442      0.1602
     67  C         31.5800   79.1540  131.2410 C.2   442  GLU442      0.2287
     68  O         31.7530   80.2030  131.8590 O.2   442  GLU442     -0.2864
     69  CB        32.7600   77.1510  132.1790 C.3   442  GLU442      0.0415
     70  CG        32.7160   76.0030  133.1530 C.3   442  GLU442      0.1163
     71  CD        34.0920   75.6510  133.6620 C.2   442  GLU442      0.3649
     72  OE1       35.0060   75.4440  132.8310 O.co2 442  GLU442     -0.2457
     73  OE2       34.2670   75.5890  134.8960 O.co2 442  GLU442     -0.2457
     74  N         35.5940   68.9270  140.0030 N.3   487  PHE487     -0.1241
     75  CA        34.2880   68.3020  140.1870 C.3   487  PHE487      0.1605
     76  C         34.3660   66.8070  140.5190 C.2   487  PHE487      0.2264
     77  O         35.2350   66.0740  140.0290 O.2   487  PHE487     -0.2867
     78  CB        33.4370   68.5420  138.9230 C.3   487  PHE487      0.0534
     79  CG        32.1600   67.7580  138.8850 C.ar  487  PHE487     -0.0203
     80  CD1       32.1520   66.4250  138.4800 C.ar  487  PHE487     -0.0042
     81  CD2       30.9520   68.3490  139.2590 C.ar  487  PHE487     -0.0042
     82  CE1       30.9550   65.6910  138.4500 C.ar  487  PHE487     -0.0003
     83  CE2       29.7470   67.6220  139.2320 C.ar  487  PHE487     -0.0003
     84  CZ        29.7510   66.2950  138.8270 C.ar  487  PHE487     -0.0000
     85  N         31.6190   63.3550  141.1790 N.3   489  ARG489     -0.1245
     86  CA        30.2600   62.8080  141.0530 C.3   489  ARG489      0.1563
     87  C         29.4750   62.6980  142.3630 C.2   489  ARG489      0.2260
     88  O         28.2490   62.7850  142.3610 O.2   489  ARG489     -0.2867
     89  CB        30.3010   61.4260  140.3950 C.3   489  ARG489      0.0307
     90  CG        30.5530   61.4400  138.8960 C.3   489  ARG489      0.0489
     91  CD        29.3930   60.8030  138.1410 C.3   489  ARG489      0.2205
     92  NE        29.1540   59.4230  138.5550 N.pl3 489  ARG489     -0.0865
     93  CZ        28.2150   58.6350  138.0390 C.cat 489  ARG489      0.5346
     94  NH1       28.0760   57.3920  138.4850 N.pl3 489  ARG489      0.1354
     95  NH2       27.4140   59.0830  137.0770 N.pl3 489  ARG489      0.1354
     96  N         28.7700   66.8280  143.2660 N.3   492  LYS492     -0.1231
     97  CA        27.9720   67.6110  142.3390 C.3   492  LYS492      0.1693
     98  C         28.3530   69.0840  142.4030 C.2   492  LYS492      0.2593
     99  O         27.5500   69.9450  142.0880 O.2   492  LYS492     -0.2718
    100  CB        26.4870   67.4390  142.6290 C.3   492  LYS492      0.0285
    101  CG        25.9270   66.1070  142.1670 C.3   492  LYS492      0.0035
    102  CD        24.5130   65.8980  142.6760 C.3   492  LYS492      0.0206
    103  CE        23.8820   64.6560  142.0750 C.3   492  LYS492      0.1093
    104  NZ        23.6920   64.8190  140.6010 N.3   492  LYS492     -0.1314
    105  N         29.5850   69.3680  142.8060 N.am  493  SER493     -0.1938
    106  CA        30.0470   70.7410  142.8840 C.3   493  SER493      0.2055
    107  C         31.5530   70.8290  142.6560 C.2   493  SER493      0.2642
    108  O         32.2580   69.8220  142.6330 O.2   493  SER493     -0.2714
    109  CB        29.7010   71.3470  144.2450 C.3   493  SER493      0.2130
    110  OG        30.5340   70.8340  145.2690 O.3   493  SER493     -0.2179
    111  N         32.0310   72.0550  142.5040 N.am  494  MET494     -0.1976
    112  CA        33.4330   72.3380  142.2480 C.3   494  MET494      0.1605
    113  C         33.8650   73.5780  143.0270 C.2   494  MET494      0.2287
    114  O         33.0300   74.4290  143.3590 O.2   494  MET494     -0.2864
    115  CB        33.6220   72.6050  140.7570 C.3   494  MET494      0.0413
    116  CG        34.9440   73.2210  140.4060 C.3   494  MET494      0.0598
    117  SD        34.9760   74.0050  138.7860 S.3   494  MET494     -0.1393
    118  CE        33.9890   72.8590  137.8200 C.3   494  MET494      0.0692
    119  N         30.8830   76.2350  143.3790 N.3   515  LYS515     -0.1231
    120  CA        29.8650   76.2390  142.3400 C.3   515  LYS515      0.1696
    121  C         29.3380   74.8090  142.1940 C.2   515  LYS515      0.2632
    122  O         30.1220   73.8610  142.2000 O.2   515  LYS515     -0.2714
    123  CB        30.5280   76.7100  141.0490 C.3   515  LYS515      0.0285
    124  CG        29.7210   76.6140  139.8060 C.3   515  LYS515      0.0035
    125  CD        30.5360   77.0560  138.5910 C.3   515  LYS515      0.0206
    126  CE        31.6670   76.0820  138.2850 C.3   515  LYS515      0.1093
    127  NZ        32.3350   76.3560  136.9720 N.3   515  LYS515     -0.1314
    128  N         28.0220   74.6410  142.0770 N.am  516  GLY516     -0.1718
    129  CA        27.4730   73.2940  141.9260 C.2   516  GLY516      0.1480
    130  C         25.9590   73.1400  141.9150 C.2   516  GLY516      0.2820
    131  O         25.2300   74.1290  141.9140 O.2   516  GLY516     -0.2669
    132  N         25.4940   71.8910  141.8870 N.am  517  ALA517     -0.1943
    133  CA        24.0680   71.5710  141.9090 C.3   517  ALA517      0.1600
    134  C         23.5670   72.2180  143.1930 C.2   517  ALA517      0.2287
    135  O         24.1600   72.0290  144.2470 O.2   517  ALA517     -0.2864
    136  CB        23.8710   70.0620  141.9550 C.3   517  ALA517      0.0319
    137  N         18.8620   75.5150  133.6410 N.3   560  ARG560     -0.1231
    138  CA        19.8990   74.7580  134.3190 C.3   560  ARG560      0.1694
    139  C         20.3410   75.7410  135.4080 C.2   560  ARG560      0.2592
    140  O         20.7270   76.8780  135.1160 O.2   560  ARG560     -0.2718
    141  CB        21.0490   74.4590  133.3570 C.3   560  ARG560      0.0321
    142  CG        21.9230   73.2880  133.7810 C.3   560  ARG560      0.0489
    143  CD        22.9330   72.9260  132.6910 C.3   560  ARG560      0.2205
    144  NE        22.3250   72.8220  131.3620 N.pl3 560  ARG560     -0.0865
    145  CZ        22.9410   72.3230  130.2910 C.cat 560  ARG560      0.5346
    146  NH1       24.1870   71.8710  130.3810 N.pl3 560  ARG560      0.1354
    147  NH2       22.3150   72.2840  129.1230 N.pl3 560  ARG560      0.1354
    148  N         20.2640   75.3220  136.6600 N.am  561  CYS561     -0.1956
    149  CA        20.6180   76.2150  137.7460 C.3   561  CYS561      0.1843
    150  C         21.8440   75.8260  138.5420 C.2   561  CYS561      0.2625
    151  O         22.0870   74.6440  138.7900 O.2   561  CYS561     -0.2714
    152  CB        19.4280   76.3610  138.6940 C.3   561  CYS561      0.0997
    153  SG        18.0120   77.2050  137.9510 S.3   561  CYS561     -0.0797
    154  N         22.6090   76.8430  138.9310 N.am  562  LEU562     -0.1977
    155  CA        23.8120   76.6710  139.7280 C.3   562  LEU562      0.1596
    156  C         23.7820   77.5480  140.9660 C.2   562  LEU562      0.2287
    157  O         23.4700   78.7410  140.8900 O.2   562  LEU562     -0.2864
    158  CB        25.0520   77.0670  138.9340 C.3   562  LEU562      0.0297
    159  CG        25.6410   76.1320  137.8860 C.3   562  LEU562      0.0022
    160  CD1       24.6150   75.8750  136.7820 C.3   562  LEU562      0.0001
    161  CD2       26.8920   76.7810  137.2990 C.3   562  LEU562      0.0001
    162  N         18.6770   66.3910  122.8960 N.3   627  ASP627     -0.1225
    163  CA        18.7350   67.0400  124.2000 C.3   627  ASP627      0.1805
    164  C         17.5820   66.5170  125.0630 C.2   627  ASP627      0.2597
    165  O         16.6920   65.8280  124.5790 O.2   627  ASP627     -0.2718
    166  CB        18.6280   68.5660  124.0140 C.3   627  ASP627      0.1424
    167  CG        19.1090   69.3600  125.2340 C.2   627  ASP627      0.3668
    168  OD1       19.5230   68.7580  126.2420 O.co2 627  ASP627     -0.2456
    169  OD2       19.0770   70.6110  125.1840 O.co2 627  ASP627     -0.2456
    170  N         17.5840   66.8540  126.3410 N.am  628  ASN628     -0.1974
    171  CA        16.5240   66.3840  127.2180 C.3   628  ASN628      0.1688
    172  C         15.0870   66.8970  126.9830 C.2   628  ASN628      0.2292
    173  O         14.8660   67.9870  126.4360 O.2   628  ASN628     -0.2864
    174  CB        16.9710   66.6000  128.6530 C.3   628  ASN628      0.1181
    175  CG        18.2450   65.8450  128.9430 C.2   628  ASN628      0.2629
    176  OD1       18.4150   64.7170  128.4660 O.2   628  ASN628     -0.2716
    177  ND2       19.1510   66.4480  129.7070 N.am  628  ASN628     -0.0877
@<TRIPOS>BOND
     1   162   163    1
     2   166   163    1
     3   166   167    1
     4   163   164    1
     5   165   164    2
     6   164   170   am
     7   169   167   ar
     8   167   168   ar
     9    12    13    1
    10   170   171    1
    11   173   172    2
    12    15    14    2
    13    13    14    1
    14    13    16    1
    15   172   171    1
    16    14    19   am
    17   171   174    1
    18    17    16    1
    19    16    18    1
    20    31    29    1
    21    56    55   ar
    22    19    20    1
    23    51    50    1
    24    51    52    2
    25    49    50    1
    26     4     3    2
    27   176   175    2
    28    50    53    1
    29    29    30    1
    30    29    26    1
    31    20    21    1
    32    20    23    1
    33   174   175    1
    34    24    23    1
    35   175   177   am
    36     3     2    1
    37    25    21   am
    38    25    26    1
    39   147   145    1
    40    21    22    2
    41    55    54    1
    42    55    57   ar
    43    58    59    1
    44    26    27    1
    45    40    41    1
    46    53    54    1
    47    28    27    2
    48   145   146    1
    49   145   144    2
    50    41    42    1
    51    41    44    1
    52     2     5    1
    53     2     1    1
    54    27    32   am
    55    59    60    1
    56    59    62    1
    57    42    43    2
    58     5     6    1
    59    63    62    1
    60    67    68    2
    61    67    66    1
    62    65    60   am
    63    65    66    1
    64    45    44    1
    65    45    46    1
    66   144   143    1
    67    60    61    2
    68    62    64    1
    69    32    33    1
    70    66    69    1
    71    47    46    1
    72    47    48    1
    73     6     7    1
    74    69    70    1
    75    34    33    1
    76    34    35    2
    77   143   142    1
    78    33    36    1
    79    72    71   ar
    80    70    71    1
    81     7     8    1
    82   141   142    1
    83   141   138    1
    84   137   138    1
    85    71    73   ar
    86    39    37    1
    87     8     9    2
    88    36    37    1
    89    36    38    1
    90   138   139    1
    91     9    11    1
    92     9    10    1
    93   140   139    2
    94   139   148   am
    95   148   149    1
    96   160   159    1
    97   127   126    1
    98    95    93    1
    99   161   159    1
   100   149   150    1
   101   149   152    1
   102   118   117    1
   103   159   158    1
   104   153   152    1
   105    93    94    1
   106    93    92    2
   107    91    92    1
   108    91    90    1
   109   126   125    1
   110    82    80   ar
   111    82    84   ar
   112    80    79   ar
   113   150   151    2
   114   150   154   am
   115   125   124    1
   116   117   116    1
   117    84    83   ar
   118    79    78    1
   119    79    81   ar
   120    90    89    1
   121    78    75    1
   122   154   155    1
   123   158   155    1
   124    83    81   ar
   125   155   156    1
   126   124   123    1
   127    74    75    1
   128    77    76    2
   129    75    76    1
   130    89    86    1
   131   116   115    1
   132   104   103    1
   133   115   112    1
   134   157   156    2
   135   123   120    1
   136    86    85    1
   137    86    87    1
   138   132   133    1
   139   132   130   am
   140   133   136    1
   141   133   134    1
   142   131   130    2
   143   130   129    1
   144   129   128    2
   145   103   102    1
   146   128   121    1
   147    99    98    2
   148   101   100    1
   149   101   102    1
   150   121   122    2
   151   121   120    1
   152   112   111    1
   153   112   113    1
   154    97    98    1
   155    97   100    1
   156    97    96    1
   157   120   119    1
   158    88    87    2
   159    98   105   am
   160   111   107   am
   161   108   107    2
   162   107   106    1
   163   105   106    1
   164   106   109    1
   165   113   114    2
   166   134   135    2
   167   109   110    1
