@<TRIPOS>MOLECULE
tmp/3araB00.pdb
 97 91 0 0 0
SMALL
GASTEIGER

@<TRIPOS>ATOM
      1  N        -16.3790   15.3220    1.6800 N.3    42  VAL42      -0.1245
      2  CA       -15.6700   14.5680    2.6650 C.3    42  VAL42       0.1561
      3  C        -16.6900   13.8310    3.5110 C.2    42  VAL42       0.2260
      4  O        -17.5370   14.4660    4.1930 O.2    42  VAL42      -0.2867
      5  CB       -14.8550   15.5310    3.5230 C.3    42  VAL42       0.0252
      6  CG1      -14.1380   14.7410    4.7060 C.3    42  VAL42       0.0019
      7  CG2      -13.8660   16.4000    2.5860 C.3    42  VAL42       0.0019
      8  N        -17.5380   11.7040    6.5620 N.3    44  LYS44      -0.1245
      9  CA       -16.9050   11.3750    7.8120 C.3    44  LYS44       0.1561
     10  C        -17.2870    9.9730    8.3190 C.2    44  LYS44       0.2260
     11  O        -18.4280    9.6130    8.2900 O.2    44  LYS44      -0.2867
     12  CB       -17.2940   12.3940    8.9040 C.3    44  LYS44       0.0271
     13  CG       -16.8300   13.8520    8.5690 C.3    44  LYS44       0.0035
     14  CD       -15.3590   14.0200    8.7340 C.3    44  LYS44       0.0206
     15  CE       -15.0360   15.4820    8.3700 C.3    44  LYS44       0.1093
     16  NZ       -13.8400   15.9880    9.1620 N.3    44  LYS44      -0.1314
     17  N         -6.9610    4.8110    2.0450 N.3    59  VAL59      -0.1245
     18  CA        -8.4080    4.7770    1.8920 C.3    59  VAL59       0.1561
     19  C         -8.5550    4.6020    0.3840 C.2    59  VAL59       0.2260
     20  O         -8.0950    5.4740   -0.4260 O.2    59  VAL59      -0.2867
     21  CB        -9.0320    6.1370    2.3170 C.3    59  VAL59       0.0252
     22  CG1      -10.5870    6.0830    2.0320 C.3    59  VAL59       0.0019
     23  CG2       -8.7870    6.3370    3.8170 C.3    59  VAL59       0.0019
     24  N        -10.6020   10.2470   -3.4610 N.3    74  GLY74      -0.1210
     25  CA        -9.5170   11.2420   -3.5630 C.3    74  GLY74       0.1956
     26  C         -8.6840   11.1040   -2.3160 C.2    74  GLY74       0.2612
     27  O         -9.0490   10.3760   -1.3890 O.2    74  GLY74      -0.2717
     28  N         -7.6060   11.8950   -2.2690 N.am   75  ALA75      -0.1965
     29  CA        -6.6860   11.9320   -1.1180 C.3    75  ALA75       0.1728
     30  C         -6.2720   10.5050   -0.7940 C.2    75  ALA75       0.2617
     31  O         -5.8200    9.8400   -1.6560 O.2    75  ALA75      -0.2715
     32  CB        -7.3430   12.6610    0.1870 C.3    75  ALA75       0.0334
     33  N         -6.6170   10.0380    0.3850 N.am   76  GLY76      -0.1940
     34  CA        -6.4750    8.5840    0.6750 C.3    76  GLY76       0.2014
     35  C         -5.2450    8.2110    1.5270 C.2    76  GLY76       0.2639
     36  O         -5.2420    7.0440    2.0040 O.2    76  GLY76      -0.2714
     37  N         -4.2670    9.1080    1.7020 N.am   77  VAL77      -0.1963
     38  CA        -3.0670    8.6770    2.4930 C.3    77  VAL77       0.1727
     39  C         -3.1700    9.0270    3.9450 C.2    77  VAL77       0.2616
     40  O         -3.0480   10.2300    4.3420 O.2    77  VAL77      -0.2715
     41  CB        -1.7860    9.3590    1.9210 C.3    77  VAL77       0.0290
     42  CG1       -0.4840    8.8610    2.6990 C.3    77  VAL77       0.0023
     43  CG2       -1.6530    9.0280    0.4020 C.3    77  VAL77       0.0023
     44  N         -3.4880    7.9990    4.7930 N.am   78  ILE78      -0.1963
     45  CA        -3.5490    8.2690    6.2090 C.3    78  ILE78       0.1727
     46  C         -2.1940    7.8600    6.8440 C.2    78  ILE78       0.2616
     47  O         -1.8580    6.6740    6.8050 O.2    78  ILE78      -0.2715
     48  CB        -4.5860    7.3790    6.8630 C.3    78  ILE78       0.0290
     49  CG1       -5.9490    7.6670    6.2120 C.3    78  ILE78       0.0022
     50  CG2       -4.7000    7.7210    8.4280 C.3    78  ILE78       0.0023
     51  CD1       -6.9880    6.7200    6.6700 C.3    78  ILE78       0.0001
     52  N         -1.4840    8.8450    7.4230 N.am   79  ASP79      -0.1971
     53  CA        -0.2140    8.5740    8.0420 C.3    79  ASP79       0.1709
     54  C         -0.4320    7.6990    9.2660 C.2    79  ASP79       0.2293
     55  O         -1.4260    7.7740    9.9440 O.2    79  ASP79      -0.2864
     56  CB         0.4010    9.8860    8.4750 C.3    79  ASP79       0.1436
     57  CG         0.7650   10.8160    7.2990 C.2    79  ASP79       0.3671
     58  OD1        1.1830   10.3390    6.2470 O.co2  79  ASP79      -0.2456
     59  OD2        0.6310   12.0400    7.4610 O.co2  79  ASP79      -0.2456
     60  N         -1.7190    9.2220   12.3970 N.3    82  TYR82      -0.1241
     61  CA        -2.8660   10.1110   12.3680 C.3    82  TYR82       0.1605
     62  C         -3.9290    9.5970   13.3770 C.2    82  TYR82       0.2264
     63  O         -4.2560    8.4540   13.3560 O.2    82  TYR82      -0.2867
     64  CB        -3.5360   10.1100   10.9700 C.3    82  TYR82       0.0534
     65  CG        -4.8060   10.9270   10.9350 C.ar   82  TYR82      -0.0201
     66  CD1       -4.7510   12.3180   11.1130 C.ar   82  TYR82      -0.0009
     67  CD2       -6.0510   10.3060   10.6910 C.ar   82  TYR82      -0.0009
     68  CE1       -5.8930   13.0980   11.0260 C.ar   82  TYR82       0.0417
     69  CE2       -7.2290   11.1080   10.5640 C.ar   82  TYR82       0.0417
     70  CZ        -7.1230   12.4720   10.7660 C.ar   82  TYR82       0.1957
     71  OH        -8.2430   13.2700   10.6790 O.3    82  TYR82      -0.2866
     72  N        -10.3190   12.0840   13.0370 N.3    85  ASN85      -0.1225
     73  CA       -11.4860   11.4430   12.4460 C.3    85  ASN85       0.1785
     74  C        -11.1980   11.1250   10.9790 C.2    85  ASN85       0.2597
     75  O        -10.8040   12.0220   10.1680 O.2    85  ASN85      -0.2718
     76  CB       -12.6500   12.4570   12.5510 C.3    85  ASN85       0.1169
     77  CG       -14.0010   11.9040   12.1840 C.2    85  ASN85       0.2627
     78  OD1      -14.1730   10.9030   11.4190 O.2    85  ASN85      -0.2716
     79  ND2      -15.0500   12.5910   12.7350 N.am   85  ASN85      -0.0877
     80  N        -11.4000    9.8630   10.6310 N.am   86  VAL86      -0.1966
     81  CA       -11.0310    9.4230    9.2580 C.3    86  VAL86       0.1727
     82  C        -12.1320    9.9140    8.3400 C.2    86  VAL86       0.2616
     83  O        -13.2830    9.5220    8.4980 O.2    86  VAL86      -0.2715
     84  CB       -10.8260    7.9100    9.1870 C.3    86  VAL86       0.0290
     85  CG1      -10.6990    7.3970    7.7630 C.3    86  VAL86       0.0023
     86  CG2       -9.6330    7.5110   10.1100 C.3    86  VAL86       0.0023
     87  N        -11.7440   10.7160    7.3520 N.am   87  GLY87      -0.1955
     88  CA       -12.6540   11.2350    6.3110 C.3    87  GLY87       0.1869
     89  C        -12.3510   10.5510    4.9850 C.2    87  GLY87       0.2309
     90  O        -11.1680   10.2220    4.6840 O.2    87  GLY87      -0.2863
     91  N        -12.6570   11.1150    1.0690 N.3    89  VAL89      -0.1245
     92  CA       -12.9490   12.1090    0.0740 C.3    89  VAL89       0.1561
     93  C        -13.5070   11.4010   -1.1510 C.2    89  VAL89       0.2260
     94  O        -12.8320   10.6600   -1.8830 O.2    89  VAL89      -0.2867
     95  CB       -11.6930   12.8810   -0.3400 C.3    89  VAL89       0.0252
     96  CG1      -12.1110   13.9780   -1.3720 C.3    89  VAL89       0.0019
     97  CG2      -11.0920   13.5770    0.8520 C.3    89  VAL89       0.0019
@<TRIPOS>BOND
     1    25    24    1
     2    25    26    1
     3    26    28   am
     4    26    27    2
     5    28    29    1
     6    94    93    2
     7    31    30    2
     8    96    95    1
     9    93    92    1
    10    29    30    1
    11    29    32    1
    12    30    33   am
    13    20    19    2
    14    95    92    1
    15    95    97    1
    16    92    91    1
    17    19    18    1
    18    33    34    1
    19    43    41    1
    20    34    35    1
    21    35    37   am
    22    35    36    2
    23     1     2    1
    24    37    38    1
    25    18    17    1
    26    18    21    1
    27    41    38    1
    28    41    42    1
    29    22    21    1
    30    21    23    1
    31    38    39    1
    32     7     5    1
    33     2     3    1
    34     2     5    1
    35     3     4    2
    36     5     6    1
    37    39    40    2
    38    39    44   am
    39    90    89    2
    40    44    45    1
    41    89    88    1
    42    45    46    1
    43    45    48    1
    44    49    51    1
    45    49    48    1
    46    58    57   ar
    47    88    87    1
    48     8     9    1
    49    47    46    2
    50    46    52   am
    51    48    50    1
    52    57    59   ar
    53    57    56    1
    54    87    82   am
    55    52    53    1
    56    85    84    1
    57     9    10    1
    58     9    12    1
    59    53    56    1
    60    53    54    1
    61    11    10    2
    62    82    83    2
    63    82    81    1
    64    15    14    1
    65    15    16    1
    66    13    14    1
    67    13    12    1
    68    84    81    1
    69    84    86    1
    70    81    80    1
    71    54    55    2
    72    75    74    2
    73    69    67   ar
    74    69    70   ar
    75    80    74   am
    76    71    70    1
    77    67    65   ar
    78    70    68   ar
    79    65    64    1
    80    65    66   ar
    81    64    61    1
    82    74    73    1
    83    68    66   ar
    84    78    77    2
    85    77    76    1
    86    77    79   am
    87    61    60    1
    88    61    62    1
    89    73    76    1
    90    73    72    1
    91    63    62    2
