@<TRIPOS>MOLECULE
tmp/3arbA04.pdb
 163 156 0 0 0
SMALL
GASTEIGER

@<TRIPOS>ATOM
      1  N         -6.1820  -45.5220  -67.8200 N.3    72  PHE72      -0.1241
      2  CA        -6.2380  -46.7500  -68.6040 C.3    72  PHE72       0.1605
      3  C         -4.8460  -47.1390  -69.0940 C.2    72  PHE72       0.2264
      4  O         -4.4280  -48.2900  -68.9470 O.2    72  PHE72      -0.2867
      5  CB        -7.1940  -46.5770  -69.7900 C.3    72  PHE72       0.0534
      6  CG        -7.2670  -47.7750  -70.6920 C.ar   72  PHE72      -0.0203
      7  CD1       -6.5140  -47.8280  -71.8620 C.ar   72  PHE72      -0.0042
      8  CD2       -8.0880  -48.8530  -70.3730 C.ar   72  PHE72      -0.0042
      9  CE1       -6.5750  -48.9380  -72.6970 C.ar   72  PHE72      -0.0003
     10  CE2       -8.1570  -49.9690  -71.2060 C.ar   72  PHE72      -0.0003
     11  CZ        -7.4020  -50.0110  -72.3680 C.ar   72  PHE72      -0.0000
     12  N         -3.0340  -50.6600  -67.8600 N.3    76  ILE76      -0.1245
     13  CA        -2.6430  -51.7100  -68.7940 C.3    76  ILE76       0.1561
     14  C         -1.1730  -52.0820  -68.6110 C.2    76  ILE76       0.2260
     15  O         -0.8580  -53.2490  -68.3960 O.2    76  ILE76      -0.2867
     16  CB        -2.9290  -51.3210  -70.2710 C.3    76  ILE76       0.0252
     17  CG1       -4.4370  -51.1800  -70.5270 C.3    76  ILE76       0.0019
     18  CG2       -2.2860  -52.3220  -71.2370 C.3    76  ILE76       0.0019
     19  CD1       -5.2730  -52.4160  -70.2030 C.3    76  ILE76       0.0001
     20  N         -0.5110  -53.9060  -65.5350 N.3    79  LEU79      -0.1231
     21  CA        -1.0090  -55.2760  -65.6880 C.3    79  LEU79       0.1693
     22  C         -0.0590  -56.1250  -66.5330 C.2    79  LEU79       0.2591
     23  O          0.0820  -57.3250  -66.2980 O.2    79  LEU79      -0.2718
     24  CB        -2.4200  -55.2930  -66.2870 C.3    79  LEU79       0.0284
     25  CG        -3.5930  -55.0290  -65.3380 C.3    79  LEU79       0.0019
     26  CD1       -4.8660  -54.7570  -66.1180 C.3    79  LEU79       0.0001
     27  CD2       -3.8050  -56.1880  -64.3630 C.3    79  LEU79       0.0001
     28  N          0.5870  -55.4930  -67.5130 N.am   80  VAL80      -0.1980
     29  CA         1.6170  -56.1420  -68.3170 C.3    80  VAL80       0.1595
     30  C          2.7520  -56.6160  -67.4090 C.2    80  VAL80       0.2287
     31  O          3.2380  -57.7430  -67.5510 O.2    80  VAL80      -0.2864
     32  CB         2.1700  -55.1960  -69.4140 C.3    80  VAL80       0.0276
     33  CG1        3.3290  -55.8440  -70.1650 C.3    80  VAL80       0.0022
     34  CG2        1.0740  -54.8090  -70.3840 C.3    80  VAL80       0.0022
     35  N          1.7550  -59.8320  -65.4330 N.3    83  MET83      -0.1230
     36  CA         1.6210  -61.0890  -66.1690 C.3    83  MET83       0.1702
     37  C          2.8960  -61.5310  -66.8870 C.2    83  MET83       0.2593
     38  O          3.2910  -62.6940  -66.7800 O.2    83  MET83      -0.2718
     39  CB         0.4450  -61.0260  -67.1530 C.3    83  MET83       0.0401
     40  CG        -0.8740  -60.5340  -66.5560 C.3    83  MET83       0.0596
     41  SD        -1.2920  -61.2590  -64.9570 S.3    83  MET83      -0.1393
     42  CE        -1.6130  -62.9660  -65.4100 C.3    83  MET83       0.0692
     43  N          3.5310  -60.6100  -67.6140 N.am   84  SER84      -0.1952
     44  CA         4.7790  -60.9090  -68.3260 C.3    84  SER84       0.1924
     45  C          5.9500  -60.0020  -67.9020 C.2    84  SER84       0.2314
     46  O          6.2450  -59.0110  -68.5810 O.2    84  SER84      -0.2863
     47  CB         4.5620  -60.8510  -69.8430 C.3    84  SER84       0.2116
     48  OG         4.2490  -59.5500  -70.2390 O.3    84  SER84      -0.2180
     49  N          3.0230  -60.7690  -74.7090 N.3    86  ASP86      -0.1239
     50  CA         4.0970  -60.0930  -73.9880 C.3    86  ASP86       0.1674
     51  C          4.2370  -58.6460  -74.4580 C.2    86  ASP86       0.2266
     52  O          3.9230  -57.7160  -73.7120 O.2    86  ASP86      -0.2867
     53  CB         5.4190  -60.8500  -74.1540 C.3    86  ASP86       0.1410
     54  CG         6.5410  -60.4120  -73.2430 C.2    86  ASP86       0.3668
     55  OD1        6.4160  -59.3980  -72.5220 O.co2  86  ASP86      -0.2456
     56  OD2        7.6020  -61.0900  -73.2350 O.co2  86  ASP86      -0.2456
     57  N          1.2230  -55.0920  -77.7000 N.3    89  ILE89      -0.1245
     58  CA        -0.1440  -55.3870  -77.2790 C.3    89  ILE89       0.1561
     59  C         -1.1400  -54.4120  -77.9110 C.2    89  ILE89       0.2260
     60  O         -0.9300  -53.1930  -77.9010 O.2    89  ILE89      -0.2867
     61  CB        -0.2780  -55.3790  -75.7320 C.3    89  ILE89       0.0252
     62  CG1        0.5320  -56.5270  -75.1260 C.3    89  ILE89       0.0019
     63  CG2       -1.7350  -55.5190  -75.2990 C.3    89  ILE89       0.0019
     64  CD1        0.8690  -56.3420  -73.6650 C.3    89  ILE89       0.0001
     65  N         -5.2140  -53.3800  -77.7590 N.3    91  ILE91      -0.1245
     66  CA        -6.4730  -53.4670  -77.0160 C.3    91  ILE91       0.1561
     67  C         -7.5400  -52.6000  -77.6820 C.2    91  ILE91       0.2260
     68  O         -7.2850  -51.4450  -78.0370 O.2    91  ILE91      -0.2867
     69  CB        -6.2910  -53.0500  -75.5350 C.3    91  ILE91       0.0252
     70  CG1       -5.3250  -54.0070  -74.8370 C.3    91  ILE91       0.0019
     71  CG2       -7.6290  -53.0410  -74.7880 C.3    91  ILE91       0.0019
     72  CD1       -4.5210  -53.3670  -73.7400 C.3    91  ILE91       0.0001
     73  N        -14.5340  -55.5910  -74.7970 N.3   111  VAL111     -0.1245
     74  CA       -13.0840  -55.4130  -74.8480 C.3   111  VAL111      0.1561
     75  C        -12.4470  -56.5890  -75.5820 C.2   111  VAL111      0.2260
     76  O        -12.7370  -57.7490  -75.2770 O.2   111  VAL111     -0.2867
     77  CB       -12.4620  -55.2640  -73.4270 C.3   111  VAL111      0.0252
     78  CG1      -10.9420  -55.1670  -73.4980 C.3   111  VAL111      0.0019
     79  CG2      -13.0230  -54.0400  -72.7120 C.3   111  VAL111      0.0019
     80  N         -8.6630  -58.3540  -76.9980 N.3   113  PHE113     -0.1241
     81  CA        -7.2240  -58.4460  -76.7730 C.3   113  PHE113      0.1605
     82  C         -6.5770  -59.1480  -77.9630 C.2   113  PHE113      0.2264
     83  O         -6.8690  -60.3170  -78.2430 O.2   113  PHE113     -0.2867
     84  CB        -6.9520  -59.1990  -75.4680 C.3   113  PHE113      0.0534
     85  CG        -5.4930  -59.3890  -75.1500 C.ar  113  PHE113     -0.0203
     86  CD1       -4.7520  -58.3640  -74.5680 C.ar  113  PHE113     -0.0042
     87  CD2       -4.8710  -60.6120  -75.3900 C.ar  113  PHE113     -0.0042
     88  CE1       -3.4010  -58.5460  -74.2570 C.ar  113  PHE113     -0.0003
     89  CE2       -3.5240  -60.8030  -75.0820 C.ar  113  PHE113     -0.0003
     90  CZ        -2.7880  -59.7660  -74.5140 C.ar  113  PHE113     -0.0000
     91  N        -12.6760  -60.8160  -75.5000 N.3   118  VAL118     -0.1231
     92  CA       -12.3440  -61.5600  -74.2720 C.3   118  VAL118      0.1692
     93  C        -13.1140  -61.1530  -73.0150 C.2   118  VAL118      0.2591
     94  O        -13.4050  -61.9950  -72.1660 O.2   118  VAL118     -0.2718
     95  CB       -10.8230  -61.5240  -73.9430 C.3   118  VAL118      0.0266
     96  CG1      -10.0460  -62.4680  -74.8510 C.3   118  VAL118      0.0020
     97  CG2      -10.2670  -60.0950  -74.0010 C.3   118  VAL118      0.0020
     98  N        -13.4240  -59.8660  -72.8930 N.am  119  VAL119     -0.1980
     99  CA       -14.0260  -59.3290  -71.6740 C.3   119  VAL119      0.1595
    100  C        -15.1910  -58.3890  -71.9930 C.2   119  VAL119      0.2287
    101  O        -15.1700  -57.6750  -72.9990 O.2   119  VAL119     -0.2864
    102  CB       -12.9600  -58.6130  -70.7820 C.3   119  VAL119      0.0276
    103  CG1      -13.6020  -57.8680  -69.6210 C.3   119  VAL119      0.0022
    104  CG2      -11.9410  -59.6110  -70.2530 C.3   119  VAL119      0.0022
    105  N        -16.5720  -56.7440  -64.3260 N.3   126  TRP126     -0.1241
    106  CA       -15.9570  -57.2680  -65.5420 C.3   126  TRP126      0.1605
    107  C        -16.1220  -58.7860  -65.5820 C.2   126  TRP126      0.2264
    108  O        -15.9760  -59.4600  -64.5570 O.2   126  TRP126     -0.2867
    109  CB       -14.4670  -56.9180  -65.5970 C.3   126  TRP126      0.0550
    110  CG       -14.1700  -55.4470  -65.6050 C.ar  126  TRP126      0.0003
    111  CD1      -13.6840  -54.7040  -64.5680 C.ar  126  TRP126      0.0946
    112  CD2      -14.3300  -54.5410  -66.7040 C.ar  126  TRP126      0.0152
    113  NE1      -13.5340  -53.3930  -64.9500 N.ar  126  TRP126     -0.2442
    114  CE2      -13.9260  -53.2650  -66.2560 C.ar  126  TRP126      0.0810
    115  CE3      -14.7840  -54.6820  -68.0210 C.ar  126  TRP126      0.0012
    116  CZ2      -13.9600  -52.1350  -67.0800 C.ar  126  TRP126      0.0191
    117  CZ3      -14.8170  -53.5580  -68.8410 C.ar  126  TRP126      0.0001
    118  CH2      -14.4070  -52.3030  -68.3670 C.ar  126  TRP126      0.0015
    119  N         -5.5340  -66.9930  -68.0780 N.3   135  TRP135     -0.1227
    120  CA        -4.6380  -66.0290  -67.4340 C.3   135  TRP135      0.1737
    121  C         -5.3070  -64.6800  -67.1710 C.2   135  TRP135      0.2595
    122  O         -4.7860  -63.8650  -66.4120 O.2   135  TRP135     -0.2718
    123  CB        -3.3210  -65.8540  -68.2080 C.3   135  TRP135      0.0564
    124  CG        -3.4630  -65.3860  -69.6300 C.ar  135  TRP135      0.0003
    125  CD1       -3.3690  -66.1550  -70.7540 C.ar  135  TRP135      0.0946
    126  CD2       -3.6980  -64.0440  -70.0820 C.ar  135  TRP135      0.0152
    127  NE1       -3.5410  -65.3820  -71.8750 N.ar  135  TRP135     -0.2442
    128  CE2       -3.7460  -64.0830  -71.4930 C.ar  135  TRP135      0.0810
    129  CE3       -3.8790  -62.8150  -69.4340 C.ar  135  TRP135      0.0012
    130  CZ2       -3.9680  -62.9390  -72.2690 C.ar  135  TRP135      0.0191
    131  CZ3       -4.1020  -61.6760  -70.2080 C.ar  135  TRP135      0.0001
    132  CH2       -4.1450  -61.7490  -71.6100 C.ar  135  TRP135      0.0015
    133  N         -6.4610  -64.4550  -67.7920 N.am  136  LEU136     -0.1980
    134  CA        -7.2250  -63.2260  -67.5930 C.3   136  LEU136      0.1596
    135  C         -7.9090  -63.1590  -66.2270 C.2   136  LEU136      0.2287
    136  O         -8.2930  -62.0770  -65.7780 O.2   136  LEU136     -0.2864
    137  CB        -8.2640  -63.0560  -68.7010 C.3   136  LEU136      0.0297
    138  CG        -7.8160  -62.4130  -70.0140 C.3   136  LEU136      0.0022
    139  CD1       -8.7770  -62.7830  -71.1200 C.3   136  LEU136      0.0001
    140  CD2       -7.7120  -60.8950  -69.8800 C.3   136  LEU136      0.0001
    141  N         -6.0670  -60.5650  -63.6790 N.3   139  PRO139     -0.2102
    142  CA        -6.3590  -59.1650  -64.0180 C.3   139  PRO139      0.1504
    143  C         -7.8160  -58.7660  -63.7770 C.2   139  PRO139      0.2575
    144  O         -8.0750  -57.6660  -63.2910 O.2   139  PRO139     -0.2718
    145  CB        -6.0350  -59.0950  -65.5100 C.3   139  PRO139      0.0282
    146  CG        -4.9730  -60.1000  -65.6950 C.3   139  PRO139      0.0208
    147  CD        -5.2810  -61.2190  -64.7430 C.3   139  PRO139      0.0893
    148  N         -8.7500  -59.6560  -64.1100 N.am  140  ILE140     -0.1980
    149  CA       -10.1740  -59.4270  -63.8620 C.3   140  ILE140      0.1595
    150  C        -10.4460  -59.2290  -62.3700 C.2   140  ILE140      0.2287
    151  O        -11.1180  -58.2680  -61.9840 O.2   140  ILE140     -0.2864
    152  CB       -11.0560  -60.5700  -64.4520 C.3   140  ILE140      0.0276
    153  CG1      -11.0500  -60.5310  -65.9880 C.3   140  ILE140      0.0022
    154  CG2      -12.4890  -60.5100  -63.9220 C.3   140  ILE140      0.0022
    155  CD1      -11.3470  -59.1670  -66.6080 C.3   140  ILE140      0.0001
    156  N         -9.0370  -55.8560  -61.3100 N.3   143  LEU143     -0.1245
    157  CA        -9.8800  -54.7520  -61.7770 C.3   143  LEU143      0.1561
    158  C        -11.2440  -54.6800  -61.0850 C.2   143  LEU143      0.2260
    159  O        -11.7770  -53.5860  -60.8810 O.2   143  LEU143     -0.2867
    160  CB       -10.0710  -54.8140  -63.2930 C.3   143  LEU143      0.0270
    161  CG        -8.8720  -54.5860  -64.2180 C.3   143  LEU143      0.0019
    162  CD1       -9.2680  -54.9430  -65.6410 C.3   143  LEU143      0.0001
    163  CD2       -8.3440  -53.1560  -64.1460 C.3   143  LEU143      0.0001
@<TRIPOS>BOND
     1    83    82    2
     2    68    67    2
     3    82    81    1
     4    59    60    2
     5    59    58    1
     6    65    66    1
     7    57    58    1
     8    67    66    1
     9    58    61    1
    10    66    69    1
    11    80    81    1
    12    81    84    1
    13    61    63    1
    14    61    62    1
    15    75    76    2
    16    75    74    1
    17    69    70    1
    18    69    71    1
    19    91    92    1
    20    84    85    1
    21    87    85   ar
    22    87    89   ar
    23    85    86   ar
    24    62    64    1
    25    89    90   ar
    26    96    95    1
    27    74    73    1
    28    74    77    1
    29    70    72    1
    30    49    50    1
    31    86    88   ar
    32    90    88   ar
    33    51    50    1
    34    51    52    2
    35    92    95    1
    36    92    93    1
    37    53    50    1
    38    53    54    1
    39    97    95    1
    40    78    77    1
    41    77    79    1
    42    54    56   ar
    43    54    55   ar
    44    93    98   am
    45    93    94    2
    46   101   100    2
    47    98    99    1
    48     9    11   ar
    49     9     7   ar
    50    11    10   ar
    51   130   132   ar
    52   130   128   ar
    53   100    99    1
    54   127   128   ar
    55   127   125   ar
    56     7     6   ar
    57    99   102    1
    58   132   131   ar
    59   128   126   ar
    60    18    16    1
    61    10     8   ar
    62   139   138    1
    63   102   104    1
    64   102   103    1
    65   125   124   ar
    66     6     8   ar
    67     6     5    1
    68    17    16    1
    69    17    19    1
    70    34    32    1
    71    16    13    1
    72    48    47    1
    73   131   129   ar
    74    33    32    1
    75   126   124   ar
    76   126   129   ar
    77   138   140    1
    78   138   137    1
    79    47    44    1
    80     5     2    1
    81   124   123    1
    82    32    29    1
    83     3     4    2
    84     3     2    1
    85   117   118   ar
    86   117   115   ar
    87    13    14    1
    88    13    12    1
    89   137   134    1
    90    14    15    2
    91     2     1    1
    92    46    45    2
    93   118   116   ar
    94    44    45    1
    95    44    43    1
    96    29    28    1
    97    29    30    1
    98   123   120    1
    99   119   120    1
   100   115   112   ar
   101   133   134    1
   102   133   121   am
   103    43    37   am
   104   134   135    1
   105    31    30    2
   106    28    22   am
   107   120   121    1
   108   121   122    2
   109    39    40    1
   110    39    36    1
   111   116   114   ar
   112    37    38    2
   113    37    36    1
   114   112   114   ar
   115   112   110   ar
   116   155   153    1
   117    40    41    1
   118    22    23    2
   119    22    21    1
   120    24    21    1
   121    24    25    1
   122   114   113   ar
   123   135   136    2
   124    36    35    1
   125    26    25    1
   126   153   152    1
   127   146   145    1
   128   146   147    1
   129    21    20    1
   130   162   161    1
   131   110   109    1
   132   110   111   ar
   133   109   106    1
   134   107   106    1
   135   107   108    2
   136   106   105    1
   137   145   142    1
   138    42    41    1
   139    25    27    1
   140   113   111   ar
   141   147   141    1
   142   152   154    1
   143   152   149    1
   144   161   163    1
   145   161   160    1
   146   148   149    1
   147   148   143   am
   148   142   143    1
   149   142   141    1
   150   149   150    1
   151   143   144    2
   152   160   157    1
   153   150   151    2
   154   157   156    1
   155   157   158    1
   156   158   159    2
