@<TRIPOS>MOLECULE
tmp/3arlA00.pdb
 205 200 0 0 0
SMALL
GASTEIGER

@<TRIPOS>ATOM
      1  N          6.5770   17.9730    2.4980 N.3    35  TYR35      -0.1241
      2  CA         6.8640   17.4970    1.1330 C.3    35  TYR35       0.1605
      3  C          5.6600   17.6150    0.2020 C.2    35  TYR35       0.2264
      4  O          5.7750   18.1350   -0.9240 O.2    35  TYR35      -0.2867
      5  CB         7.3670   16.0380    1.2060 C.3    35  TYR35       0.0534
      6  CG         7.4670   15.3030   -0.1380 C.ar   35  TYR35      -0.0201
      7  CD1        8.4460   15.6520   -1.0550 C.ar   35  TYR35      -0.0009
      8  CD2        6.6280   14.2030   -0.4300 C.ar   35  TYR35      -0.0009
      9  CE1        8.5600   14.9720   -2.2800 C.ar   35  TYR35       0.0417
     10  CE2        6.7330   13.5150   -1.6180 C.ar   35  TYR35       0.0417
     11  CZ         7.7250   13.8950   -2.5230 C.ar   35  TYR35       0.1957
     12  OH         7.8710   13.2430   -3.7070 O.3    35  TYR35      -0.2866
     13  N          2.5550   15.3450   -5.9800 N.3    42  ASN42      -0.1240
     14  CA         2.8360   14.0000   -5.4320 C.3    42  ASN42       0.1653
     15  C          1.6920   13.3390   -4.6570 C.2    42  ASN42       0.2266
     16  O          1.6760   12.1200   -4.5070 O.2    42  ASN42      -0.2867
     17  CB         4.0990   14.0500   -4.5690 C.3    42  ASN42       0.1155
     18  CG         5.3170   14.3210   -5.4180 C.2    42  ASN42       0.2627
     19  OD1        5.6250   13.5170   -6.3160 O.2    42  ASN42      -0.2716
     20  ND2        5.9330   15.4920   -5.2290 N.am   42  ASN42      -0.0877
     21  N         -0.1460   10.3930   -6.2340 N.3    45  LYS45      -0.1231
     22  CA         0.5440    9.1040   -6.4010 C.3    45  LYS45       0.1693
     23  C          0.1210    8.1220   -5.2760 C.2    45  LYS45       0.2592
     24  O          0.2930    6.9020   -5.4120 O.2    45  LYS45      -0.2718
     25  CB         2.0760    9.3090   -6.4000 C.3    45  LYS45       0.0285
     26  CG         2.5810   10.3870   -7.3250 C.3    45  LYS45       0.0035
     27  CD         2.3960   10.0230   -8.8190 C.3    45  LYS45       0.0206
     28  CE         2.8860   11.1870   -9.7420 C.3    45  LYS45       0.1093
     29  NZ         2.8960   10.7210  -11.1500 N.3    45  LYS45      -0.1314
     30  N         -0.3890    8.6750   -4.1680 N.am   46  PHE46      -0.1962
     31  CA        -0.8490    7.8880   -3.0100 C.3    46  PHE46       0.1771
     32  C         -2.3660    7.6840   -3.1010 C.2    46  PHE46       0.2619
     33  O         -3.1430    8.5610   -2.7340 O.2    46  PHE46      -0.2715
     34  CB        -0.4580    8.5450   -1.6860 C.3    46  PHE46       0.0574
     35  CG         1.0320    8.7580   -1.5600 C.ar   46  PHE46      -0.0200
     36  CD1        1.8330    7.7940   -0.9850 C.ar   46  PHE46      -0.0042
     37  CD2        1.6340    9.9000   -2.0860 C.ar   46  PHE46      -0.0042
     38  CE1        3.2460    7.9790   -0.9080 C.ar   46  PHE46      -0.0003
     39  CE2        3.0440   10.1010   -2.0100 C.ar   46  PHE46      -0.0003
     40  CZ         3.8320    9.1400   -1.4060 C.ar   46  PHE46      -0.0000
     41  N         -2.7790    6.4990   -3.5690 N.am   47  GLU47      -0.1963
     42  CA        -4.2140    6.2720   -3.8170 C.3    47  GLU47       0.1733
     43  C         -5.1030    6.4440   -2.6080 C.2    47  GLU47       0.2617
     44  O         -6.2830    6.8270   -2.7600 O.2    47  GLU47      -0.2715
     45  CB        -4.4570    4.9110   -4.4690 C.3    47  GLU47       0.0429
     46  CG        -3.8290    4.8190   -5.8460 C.3    47  GLU47       0.1163
     47  CD        -4.6690    5.4790   -6.9320 C.2    47  GLU47       0.3649
     48  OE1       -5.8050    5.9260   -6.6760 O.co2  47  GLU47      -0.2457
     49  OE2       -4.1860    5.5100   -8.0710 O.co2  47  GLU47      -0.2457
     50  N         -4.5580    6.1880   -1.4170 N.am   48  THR48      -0.1951
     51  CA        -5.3430    6.4020   -0.2020 C.3    48  THR48       0.1897
     52  C         -5.5520    7.8810    0.1460 C.2    48  THR48       0.2313
     53  O         -6.4660    8.2230    0.9170 O.2    48  THR48      -0.2863
     54  CB        -4.7580    5.7000    1.0450 C.3    48  THR48       0.1794
     55  OG1       -3.4570    6.2340    1.3280 O.3    48  THR48      -0.2208
     56  CG2       -4.7300    4.1790    0.8440 C.3    48  THR48       0.0378
     57  N          1.7010    6.1040    5.8710 N.3    66  ILE66      -0.1245
     58  CA         2.6100    6.3480    4.7310 C.3    66  ILE66       0.1561
     59  C          3.8850    7.0490    5.2170 C.2    66  ILE66       0.2260
     60  O          4.9840    6.6110    4.9110 O.2    66  ILE66      -0.2867
     61  CB         1.9290    7.1870    3.5980 C.3    66  ILE66       0.0252
     62  CG1        0.7470    6.3960    3.0250 C.3    66  ILE66       0.0019
     63  CG2        2.9710    7.6270    2.5330 C.3    66  ILE66       0.0019
     64  CD1       -0.2450    7.1800    2.1820 C.3    66  ILE66       0.0001
     65  N          6.0790    4.6550    7.1830 N.3    69  ARG69      -0.1231
     66  CA         6.7490    3.5860    6.4090 C.3    69  ARG69       0.1694
     67  C          7.9980    4.1180    5.6860 C.2    69  ARG69       0.2591
     68  O          9.0090    3.4220    5.5970 O.2    69  ARG69      -0.2718
     69  CB         5.7940    2.8880    5.4390 C.3    69  ARG69       0.0321
     70  CG         5.5740    3.6470    4.1390 C.3    69  ARG69       0.0489
     71  CD         4.3310    3.1670    3.4320 C.3    69  ARG69       0.2205
     72  NE         4.1400    3.8430    2.1400 N.pl3  69  ARG69      -0.0865
     73  CZ         3.0120    3.7270    1.4330 C.cat  69  ARG69       0.5346
     74  NH1        2.0270    2.9840    1.9310 N.pl3  69  ARG69       0.1354
     75  NH2        2.8580    4.3570    0.2590 N.pl3  69  ARG69       0.1354
     76  N          7.9310    5.3760    5.2270 N.am   70  ILE70      -0.1980
     77  CA         9.0830    6.0050    4.5730 C.3    70  ILE70       0.1595
     78  C         10.2420    6.1340    5.6040 C.2    70  ILE70       0.2287
     79  O         11.4050    5.7060    5.3770 O.2    70  ILE70      -0.2864
     80  CB         8.7300    7.4030    4.0010 C.3    70  ILE70       0.0276
     81  CG1        7.8160    7.2920    2.7770 C.3    70  ILE70       0.0022
     82  CG2       10.0150    8.1830    3.5950 C.3    70  ILE70       0.0022
     83  CD1        7.1190    8.5940    2.4540 C.3    70  ILE70       0.0001
     84  N         12.0030    2.8940    6.8120 N.3    73  ILE73      -0.1231
     85  CA        13.0480    2.4690    5.8880 C.3    73  ILE73       0.1692
     86  C         14.3330    3.2450    6.1270 C.2    73  ILE73       0.2592
     87  O         15.3960    2.6320    6.2420 O.2    73  ILE73      -0.2718
     88  CB        12.6320    2.5390    4.3790 C.3    73  ILE73       0.0266
     89  CG1       11.4450    1.6150    4.1020 C.3    73  ILE73       0.0019
     90  CG2       13.8540    2.2320    3.4260 C.3    73  ILE73       0.0020
     91  CD1       11.7590    0.0680    4.2590 C.3    73  ILE73       0.0001
     92  N         14.2590    4.5850    6.1500 N.am   74  PHE74      -0.1976
     93  CA        15.5080    5.3340    6.4200 C.3    74  PHE74       0.1639
     94  C         16.1020    4.9680    7.7950 C.2    74  PHE74       0.2290
     95  O         17.3320    4.8460    7.9300 O.2    74  PHE74      -0.2864
     96  CB        15.2670    6.8260    6.2870 C.3    74  PHE74       0.0560
     97  CG        15.1050    7.2680    4.8370 C.ar   74  PHE74      -0.0200
     98  CD1       16.1230    7.0430    3.8920 C.ar   74  PHE74      -0.0042
     99  CD2       13.9400    7.9150    4.4340 C.ar   74  PHE74      -0.0042
    100  CE1       15.9670    7.4340    2.5490 C.ar   74  PHE74      -0.0003
    101  CE2       13.7970    8.2910    3.1190 C.ar   74  PHE74      -0.0003
    102  CZ        14.8530    8.0700    2.1850 C.ar   74  PHE74      -0.0000
    103  N         12.2600   -2.7450   -0.2560 N.3    94  MET94      -0.1245
    104  CA        11.2440   -1.6970   -0.4180 C.3    94  MET94       0.1570
    105  C         11.1040   -1.2470   -1.8790 C.2    94  MET94       0.2261
    106  O         10.0930   -0.6620   -2.2160 O.2    94  MET94      -0.2867
    107  CB        11.4640   -0.5070    0.5260 C.3    94  MET94       0.0387
    108  CG        12.8040    0.1680    0.4240 C.3    94  MET94       0.0595
    109  SD        13.0560    1.1430   -1.0800 S.3    94  MET94      -0.1393
    110  CE        11.7320    2.2450   -0.9720 C.3    94  MET94       0.0692
    111  N          7.7510   -2.7120   -4.6120 N.3    97  PRO97      -0.2102
    112  CA         6.4980   -1.9560   -4.6940 C.3    97  PRO97       0.1504
    113  C          6.5660   -0.6980   -5.5980 C.2    97  PRO97       0.2575
    114  O          5.5440   -0.1340   -5.9760 O.2    97  PRO97      -0.2718
    115  CB         6.0970   -1.5640   -3.2700 C.3    97  PRO97       0.0282
    116  CG         6.7680   -2.5580   -2.3310 C.3    97  PRO97       0.0208
    117  CD         8.0200   -3.0330   -3.2120 C.3    97  PRO97       0.0893
    118  N          7.7870   -0.1050   -5.7210 N.am   98  HIS98      -0.1976
    119  CA         7.9090    1.1330   -6.5080 C.3    98  HIS98       0.1656
    120  C          8.1460    0.8840   -8.0120 C.2    98  HIS98       0.2291
    121  O          8.0880    1.7880   -8.8350 O.2    98  HIS98      -0.2864
    122  CB         9.0630    1.9540   -5.9320 C.3    98  HIS98       0.0771
    123  CG         8.7390    2.3630   -4.5190 C.ar   98  HIS98       0.0820
    124  ND1        9.0440    1.6060   -3.4370 N.ar   98  HIS98      -0.2267
    125  CD2        8.1420    3.5490   -4.0770 C.ar   98  HIS98       0.1154
    126  CE1        8.6460    2.3220   -2.3680 C.ar   98  HIS98       0.1986
    127  NE2        8.1020    3.4900   -2.7210 N.ar   98  HIS98      -0.2212
    128  N          5.7700    1.9250  -10.8980 N.3   101  ARG101     -0.1245
    129  CA         4.9750    3.1000  -10.5740 C.3   101  ARG101      0.1563
    130  C          5.4420    4.3320  -11.3400 C.2   101  ARG101      0.2260
    131  O          6.6290    4.6010  -11.4720 O.2   101  ARG101     -0.2867
    132  CB         5.0830    3.3470   -9.0730 C.3   101  ARG101      0.0307
    133  CG         3.9270    2.6890   -8.3360 C.3   101  ARG101      0.0489
    134  CD         4.0040    2.8570   -6.8250 C.3   101  ARG101      0.2205
    135  NE         2.9950    2.0030   -6.2060 N.pl3 101  ARG101     -0.0865
    136  CZ         1.7320    2.1040   -6.6610 C.cat 101  ARG101      0.5346
    137  NH1        1.4120    3.0480   -7.5290 N.pl3 101  ARG101      0.1354
    138  NH2        0.8050    1.2420   -6.2340 N.pl3 101  ARG101      0.1354
    139  N          6.4710    7.2620  -10.8360 N.3   103  ILE103     -0.1245
    140  CA         7.0810    8.2560   -9.9600 C.3   103  ILE103      0.1561
    141  C          8.4520    8.6380  -10.5340 C.2   103  ILE103      0.2260
    142  O          9.2880    7.7710  -10.8070 O.2   103  ILE103     -0.2867
    143  CB         7.1790    7.7570   -8.5070 C.3   103  ILE103      0.0252
    144  CG1        5.7670    7.3190   -8.0130 C.3   103  ILE103      0.0019
    145  CG2        7.7800    8.8420   -7.5950 C.3   103  ILE103      0.0019
    146  CD1        5.7450    6.5450   -6.7180 C.3   103  ILE103      0.0001
    147  N         10.6980   13.4390   -8.1570 N.3   107  SER107     -0.1202
    148  CA         9.8430   13.3090   -6.9630 C.3   107  SER107      0.2020
    149  C         10.6150   12.7020   -5.7730 C.2   107  SER107      0.2618
    150  O         10.5750   13.2180   -4.6350 O.2   107  SER107     -0.2717
    151  CB         8.5850   12.4490   -7.2620 C.3   107  SER107      0.2103
    152  OG         7.6790   13.1120   -8.1470 O.3   107  SER107     -0.2182
    153  N         11.3060   11.5850   -6.0250 N.am  108  TYR108     -0.1975
    154  CA        12.1410   11.0050   -4.9610 C.3   108  TYR108      0.1639
    155  C         13.2290   11.9620   -4.4890 C.2   108  TYR108      0.2290
    156  O         13.4950   12.0790   -3.2770 O.2   108  TYR108     -0.2864
    157  CB        12.8350    9.7420   -5.4610 C.3   108  TYR108      0.0560
    158  CG        11.8840    8.6390   -5.8940 C.ar  108  TYR108     -0.0198
    159  CD1       10.9890    8.0580   -4.9670 C.ar  108  TYR108     -0.0009
    160  CD2       11.9280    8.1440   -7.1780 C.ar  108  TYR108     -0.0009
    161  CE1       10.1530    7.0270   -5.3130 C.ar  108  TYR108      0.0417
    162  CE2       11.0490    7.0660   -7.5630 C.ar  108  TYR108      0.0417
    163  CZ        10.1850    6.5390   -6.6380 C.ar  108  TYR108      0.1957
    164  OH         9.3240    5.5080   -6.9210 O.3   108  TYR108     -0.2866
    165  N         11.9560   14.6090   -2.1960 N.3   111  LEU111     -0.1245
    166  CA        11.7770   14.1130   -0.8200 C.3   111  LEU111      0.1561
    167  C         13.1230   14.1020   -0.0680 C.2   111  LEU111      0.2260
    168  O         13.2020   14.5460    1.0710 O.2   111  LEU111     -0.2867
    169  CB        11.1250   12.7150   -0.8230 C.3   111  LEU111      0.0270
    170  CG        10.9860   12.0060    0.5250 C.3   111  LEU111      0.0019
    171  CD1       10.1350   12.8580    1.5280 C.3   111  LEU111      0.0001
    172  CD2       10.3840   10.6300    0.2880 C.3   111  LEU111      0.0001
    173  N         22.0030    5.1250   -1.0220 N.3   136  PHE136     -0.1227
    174  CA        20.5660    4.8410   -1.0310 C.3   136  PHE136      0.1736
    175  C         19.9790    4.9360   -2.4360 C.2   136  PHE136      0.2595
    176  O         19.3830    3.9660   -2.9480 O.2   136  PHE136     -0.2718
    177  CB        19.7870    5.7550   -0.0730 C.3   136  PHE136      0.0547
    178  CG        18.2940    5.4370   -0.0320 C.ar  136  PHE136     -0.0202
    179  CD1       17.4200    5.9640   -1.0020 C.ar  136  PHE136     -0.0042
    180  CD2       17.7780    4.5880    0.9760 C.ar  136  PHE136     -0.0042
    181  CE1       16.0320    5.6760   -0.9800 C.ar  136  PHE136     -0.0003
    182  CE2       16.3630    4.3010    1.0130 C.ar  136  PHE136     -0.0003
    183  CZ        15.5210    4.8300    0.0150 C.ar  136  PHE136     -0.0000
    184  N         20.1420    6.1100   -3.0400 N.am  137  PHE137     -0.1976
    185  CA        19.6650    6.3390   -4.4230 C.3   137  PHE137      0.1639
    186  C         20.2970    5.4840   -5.5260 C.2   137  PHE137      0.2290
    187  O         19.5810    5.0290   -6.4240 O.2   137  PHE137     -0.2864
    188  CB        19.6230    7.8170   -4.7160 C.3   137  PHE137      0.0560
    189  CG        18.4560    8.4450   -4.0290 C.ar  137  PHE137     -0.0200
    190  CD1       17.1620    8.2470   -4.5400 C.ar  137  PHE137     -0.0042
    191  CD2       18.6020    9.0700   -2.8100 C.ar  137  PHE137     -0.0042
    192  CE1       16.0540    8.7260   -3.8670 C.ar  137  PHE137     -0.0003
    193  CE2       17.4900    9.5790   -2.1390 C.ar  137  PHE137     -0.0003
    194  CZ        16.2180    9.4050   -2.6720 C.ar  137  PHE137     -0.0000
    195  N         18.5610    2.0580   -4.9570 N.3   140  PHE140     -0.1241
    196  CA        17.1590    2.2290   -5.2760 C.3   140  PHE140      0.1605
    197  C         16.9510    2.3540   -6.7900 C.2   140  PHE140      0.2264
    198  O         16.1710    1.5950   -7.3700 O.2   140  PHE140     -0.2867
    199  CB        16.6110    3.4450   -4.5440 C.3   140  PHE140      0.0534
    200  CG        15.1190    3.6270   -4.6570 C.ar  140  PHE140     -0.0203
    201  CD1       14.1930    2.6030   -4.2890 C.ar  140  PHE140     -0.0042
    202  CD2       14.6120    4.8480   -5.1090 C.ar  140  PHE140     -0.0042
    203  CE1       12.8100    2.8150   -4.3910 C.ar  140  PHE140     -0.0003
    204  CE2       13.1970    5.0650   -5.1920 C.ar  140  PHE140     -0.0003
    205  CZ        12.3140    4.0700   -4.8450 C.ar  140  PHE140     -0.0000
@<TRIPOS>BOND
     1   131   130    2
     2   130   129    1
     3    29    28    1
     4   128   129    1
     5   139   140    1
     6   142   141    2
     7   129   132    1
     8   141   140    1
     9   140   143    1
    10    28    27    1
    11   132   133    1
    12   121   120    2
    13    27    26    1
    14   143   144    1
    15   143   145    1
    16   133   134    1
    17   147   148    1
    18   152   151    1
    19    49    47   ar
    20   144   146    1
    21   120   119    1
    22   162   160   ar
    23   162   163   ar
    24   137   136    1
    25   198   197    2
    26    26    25    1
    27   151   148    1
    28   160   158   ar
    29   148   149    1
    30    47    48   ar
    31    47    46    1
    32   164   163    1
    33   134   135    1
    34   197   196    1
    35   136   138    1
    36   136   135    2
    37   163   161   ar
    38   119   122    1
    39   119   118    1
    40   187   186    2
    41    22    25    1
    42    22    21    1
    43    22    23    1
    44    19    18    2
    45   153   149   am
    46   153   154    1
    47    13    14    1
    48   114   113    2
    49   122   123    1
    50   158   157    1
    51   158   159   ar
    52    46    45    1
    53   149   150    2
    54   118   113   am
    55   113   112    1
    56   186   185    1
    57   157   154    1
    58    14    15    1
    59    14    17    1
    60    18    20   am
    61    18    17    1
    62    24    23    2
    63   161   159   ar
    64   196   195    1
    65   196   199    1
    66    23    30   am
    67   204   202   ar
    68   204   205   ar
    69   202   200   ar
    70   154   155    1
    71   205   203   ar
    72   188   185    1
    73   188   189    1
    74   112   111    1
    75   112   115    1
    76    15    16    2
    77   200   199    1
    78   200   201   ar
    79   111   117    1
    80   190   189   ar
    81   190   192   ar
    82   123   125   ar
    83   123   124   ar
    84   155   156    2
    85    45    42    1
    86   185   184    1
    87   203   201   ar
    88    30    31    1
    89   125   127   ar
    90   189   191   ar
    91   192   194   ar
    92    42    41    1
    93    42    43    1
    94    12    11    1
    95    41    32   am
    96   124   126   ar
    97   115   116    1
    98   117   116    1
    99    32    31    1
   100    32    33    2
   101   184   175   am
   102    31    34    1
   103   176   175    2
   104   191   193   ar
   105    44    43    2
   106   127   126   ar
   107   194   193   ar
   108    43    50   am
   109    11     9   ar
   110    11    10   ar
   111   175   174    1
   112     9     7   ar
   113   106   105    2
   114   165   166    1
   115    37    39   ar
   116    37    35   ar
   117    39    40   ar
   118   105   104    1
   119    34    35    1
   120    10     8   ar
   121    35    36   ar
   122    50    51    1
   123    40    38   ar
   124   109   110    1
   125   109   108    1
   126     7     6   ar
   127   174   173    1
   128   174   177    1
   129   179   181   ar
   130   179   178   ar
   131    36    38   ar
   132   181   183   ar
   133     4     3    2
   134   169   166    1
   135   169   170    1
   136   166   167    1
   137     8     6   ar
   138   104   103    1
   139   104   107    1
   140    51    52    1
   141    51    54    1
   142     6     5    1
   143   177   178    1
   144   167   168    2
   145   178   180   ar
   146   183   182   ar
   147    52    53    2
   148     3     2    1
   149    75    73    1
   150   172   170    1
   151   108   107    1
   152   170   171    1
   153    56    54    1
   154   180   182   ar
   155    54    55    1
   156     2     5    1
   157     2     1    1
   158    73    74    1
   159    73    72    2
   160    72    71    1
   161    64    62    1
   162   102   100   ar
   163   102   101   ar
   164    83    81    1
   165    63    61    1
   166   100    98   ar
   167    81    80    1
   168    62    61    1
   169   101    99   ar
   170    90    88    1
   171    71    70    1
   172    82    80    1
   173    61    58    1
   174    98    97   ar
   175    80    77    1
   176    89    91    1
   177    89    88    1
   178    70    69    1
   179    88    85    1
   180    99    97   ar
   181    77    76    1
   182    77    78    1
   183    58    59    1
   184    58    57    1
   185    97    96    1
   186    60    59    2
   187    76    67   am
   188    79    78    2
   189    69    66    1
   190    68    67    2
   191    67    66    1
   192    85    86    1
   193    85    84    1
   194    86    92   am
   195    86    87    2
   196    92    93    1
   197    96    93    1
   198    66    65    1
   199    93    94    1
   200    94    95    2
