@<TRIPOS>MOLECULE
tmp/3arnB00.pdb
 97 91 0 0 0
SMALL
GASTEIGER

@<TRIPOS>ATOM
      1  N         16.2480   26.0580   46.7480 N.3    42  VAL42      -0.1245
      2  CA        15.4520   26.7810   47.7290 C.3    42  VAL42       0.1561
      3  C         16.5080   27.4990   48.6210 C.2    42  VAL42       0.2260
      4  O         17.3440   26.8470   49.2630 O.2    42  VAL42      -0.2867
      5  CB        14.7220   25.7920   48.6040 C.3    42  VAL42       0.0252
      6  CG1       14.0330   26.5660   49.7820 C.3    42  VAL42       0.0019
      7  CG2       13.6500   25.0620   47.7760 C.3    42  VAL42       0.0019
      8  N         17.3910   29.6040   51.7300 N.3    44  LYS44      -0.1245
      9  CA        16.8120   29.9300   53.0000 C.3    44  LYS44       0.1561
     10  C         17.2170   31.3390   53.4330 C.2    44  LYS44       0.2260
     11  O         18.3750   31.7100   53.3780 O.2    44  LYS44      -0.2867
     12  CB        17.2450   28.9620   54.0910 C.3    44  LYS44       0.0271
     13  CG        16.8090   27.5450   53.7660 C.3    44  LYS44       0.0035
     14  CD        15.3080   27.4070   54.0160 C.3    44  LYS44       0.0206
     15  CE        14.8610   25.9260   53.6390 C.3    44  LYS44       0.1093
     16  NZ        13.4570   25.6470   54.2410 N.3    44  LYS44      -0.1314
     17  N          6.9470   36.6090   46.9930 N.3    59  VAL59      -0.1245
     18  CA         8.3680   36.6420   46.7790 C.3    59  VAL59       0.1561
     19  C          8.4960   36.8860   45.2520 C.2    59  VAL59       0.2260
     20  O          8.0500   36.0480   44.4500 O.2    59  VAL59      -0.2867
     21  CB         9.0310   35.2980   47.1050 C.3    59  VAL59       0.0252
     22  CG1       10.5700   35.4180   46.9770 C.3    59  VAL59       0.0019
     23  CG2        8.6890   34.8490   48.5220 C.3    59  VAL59       0.0019
     24  N         10.5380   31.1160   41.5390 N.3    74  GLY74      -0.1210
     25  CA         9.4040   30.2000   41.3830 C.3    74  GLY74       0.1956
     26  C          8.5750   30.2930   42.6610 C.2    74  GLY74       0.2612
     27  O          8.9440   31.0230   43.6340 O.2    74  GLY74      -0.2717
     28  N          7.5010   29.5020   42.7030 N.am   75  ALA75      -0.1965
     29  CA         6.6040   29.5040   43.9310 C.3    75  ALA75       0.1728
     30  C          6.2180   30.9090   44.2360 C.2    75  ALA75       0.2617
     31  O          5.6600   31.5480   43.3560 O.2    75  ALA75      -0.2715
     32  CB         7.2430   28.7160   45.1360 C.3    75  ALA75       0.0334
     33  N          6.4590   31.3980   45.4480 N.am   76  GLY76      -0.1940
     34  CA         6.4310   32.8600   45.6770 C.3    76  GLY76       0.2014
     35  C          5.1670   33.3010   46.4400 C.2    76  GLY76       0.2639
     36  O          5.1010   34.4820   46.7920 O.2    76  GLY76      -0.2714
     37  N          4.2130   32.3920   46.6400 N.am   77  VAL77      -0.1963
     38  CA         2.9530   32.7940   47.3840 C.3    77  VAL77       0.1727
     39  C          3.1160   32.4260   48.8230 C.2    77  VAL77       0.2616
     40  O          2.9340   31.2020   49.1670 O.2    77  VAL77      -0.2715
     41  CB         1.6970   32.1030   46.7690 C.3    77  VAL77       0.0290
     42  CG1        0.4070   32.5460   47.4860 C.3    77  VAL77       0.0023
     43  CG2        1.5750   32.5330   45.2360 C.3    77  VAL77       0.0023
     44  N          3.4180   33.4390   49.6710 N.am   78  ILE78      -0.1963
     45  CA         3.5250   33.1660   51.1240 C.3    78  ILE78       0.1727
     46  C          2.1810   33.5780   51.7050 C.2    78  ILE78       0.2616
     47  O          1.8390   34.7690   51.7690 O.2    78  ILE78      -0.2715
     48  CB         4.6340   34.0120   51.7950 C.3    78  ILE78       0.0290
     49  CG1        5.9880   33.6640   51.0740 C.3    78  ILE78       0.0022
     50  CG2        4.7040   33.5690   53.3280 C.3    78  ILE78       0.0023
     51  CD1        7.1700   34.4410   51.6090 C.3    78  ILE78       0.0001
     52  N          1.4790   32.5860   52.2320 N.am   79  ASP79      -0.1971
     53  CA         0.1780   32.8860   52.8710 C.3    79  ASP79       0.1709
     54  C          0.3690   33.7770   54.1300 C.2    79  ASP79       0.2293
     55  O          1.3570   33.7040   54.8030 O.2    79  ASP79      -0.2864
     56  CB        -0.4250   31.5680   53.3200 C.3    79  ASP79       0.1436
     57  CG        -0.8770   30.6600   52.1520 C.2    79  ASP79       0.3671
     58  OD1       -1.2750   31.1490   51.0590 O.co2  79  ASP79      -0.2456
     59  OD2       -0.9560   29.4470   52.4570 O.co2  79  ASP79      -0.2456
     60  N          1.6400   32.2430   57.3150 N.3    82  TYR82      -0.1241
     61  CA         2.8050   31.4150   57.3790 C.3    82  TYR82       0.1605
     62  C          3.8580   32.0250   58.3460 C.2    82  TYR82       0.2264
     63  O          4.2460   33.2140   58.1850 O.2    82  TYR82      -0.2867
     64  CB         3.4310   31.3040   55.9630 C.3    82  TYR82       0.0534
     65  CG         4.7280   30.5360   55.9530 C.ar   82  TYR82      -0.0201
     66  CD1        4.7030   29.1330   56.1040 C.ar   82  TYR82      -0.0009
     67  CD2        5.9740   31.2300   55.7930 C.ar   82  TYR82      -0.0009
     68  CE1        5.9130   28.3750   56.0470 C.ar   82  TYR82       0.0417
     69  CE2        7.2170   30.5260   55.7710 C.ar   82  TYR82       0.0417
     70  CZ         7.1440   29.0990   55.8850 C.ar   82  TYR82       0.1957
     71  OH         8.2210   28.2360   55.8400 O.3    82  TYR82      -0.2866
     72  N         10.2200   29.4270   58.1980 N.3    85  ASN85      -0.1225
     73  CA        11.4090   30.0880   57.6200 C.3    85  ASN85       0.1785
     74  C         11.0490   30.4110   56.1350 C.2    85  ASN85       0.2597
     75  O         10.6480   29.5100   55.3810 O.2    85  ASN85      -0.2718
     76  CB        12.5250   29.0330   57.5610 C.3    85  ASN85       0.1169
     77  CG        13.8850   29.5750   57.2600 C.2    85  ASN85       0.2627
     78  OD1       14.0800   30.5260   56.4570 O.2    85  ASN85      -0.2716
     79  ND2       14.9190   28.9180   57.8930 N.am   85  ASN85      -0.0877
     80  N         11.2670   31.6560   55.7130 N.am   86  VAL86      -0.1966
     81  CA        10.9340   32.0730   54.3690 C.3    86  VAL86       0.1727
     82  C         11.9960   31.5480   53.4050 C.2    86  VAL86       0.2616
     83  O         13.1860   31.8730   53.5590 O.2    86  VAL86      -0.2715
     84  CB        10.8090   33.6440   54.2770 C.3    86  VAL86       0.0290
     85  CG1       10.6940   34.1230   52.7880 C.3    86  VAL86       0.0023
     86  CG2        9.6000   34.0470   55.1270 C.3    86  VAL86       0.0023
     87  N         11.5410   30.8010   52.3840 N.am   87  GLY87      -0.1955
     88  CA        12.4660   30.1790   51.4220 C.3    87  GLY87       0.1869
     89  C         12.2030   30.8790   50.0760 C.2    87  GLY87       0.2309
     90  O         11.0380   31.1050   49.7320 O.2    87  GLY87      -0.2863
     91  N         12.5560   30.3350   46.1790 N.3    89  VAL89      -0.1245
     92  CA        12.9060   29.3220   45.1470 C.3    89  VAL89       0.1561
     93  C         13.5090   30.0200   43.9530 C.2    89  VAL89       0.2260
     94  O         12.8070   30.7040   43.1570 O.2    89  VAL89      -0.2867
     95  CB        11.6580   28.5720   44.6750 C.3    89  VAL89       0.0252
     96  CG1       12.0550   27.4580   43.6600 C.3    89  VAL89       0.0019
     97  CG2       10.9290   27.8850   45.9000 C.3    89  VAL89       0.0019
@<TRIPOS>BOND
     1    25    24    1
     2    25    26    1
     3    26    28   am
     4    26    27    2
     5    28    29    1
     6    94    93    2
     7    31    30    2
     8    96    95    1
     9    29    30    1
    10    29    32    1
    11    93    92    1
    12    30    33   am
    13    20    19    2
    14    95    92    1
    15    95    97    1
    16    92    91    1
    17    43    41    1
    18    19    18    1
    19    33    34    1
    20    34    35    1
    21    35    37   am
    22    35    36    2
    23    37    38    1
    24     1     2    1
    25    41    38    1
    26    41    42    1
    27    18    17    1
    28    18    21    1
    29    22    21    1
    30    21    23    1
    31    38    39    1
    32     2     5    1
    33     2     3    1
    34     7     5    1
    35     5     6    1
    36     3     4    2
    37    39    40    2
    38    39    44   am
    39    44    45    1
    40    90    89    2
    41    89    88    1
    42    58    57   ar
    43    49    51    1
    44    49    48    1
    45    45    46    1
    46    45    48    1
    47    88    87    1
    48    46    47    2
    49    46    52   am
    50     8     9    1
    51    48    50    1
    52    57    59   ar
    53    57    56    1
    54    52    53    1
    55    87    82   am
    56    85    84    1
    57    53    56    1
    58    53    54    1
    59     9    10    1
    60     9    12    1
    61    11    10    2
    62    82    83    2
    63    82    81    1
    64    15    14    1
    65    15    16    1
    66    13    14    1
    67    13    12    1
    68    54    55    2
    69    84    81    1
    70    84    86    1
    71    81    80    1
    72    75    74    2
    73    80    74   am
    74    69    67   ar
    75    69    70   ar
    76    67    65   ar
    77    71    70    1
    78    70    68   ar
    79    65    64    1
    80    65    66   ar
    81    64    61    1
    82    68    66   ar
    83    74    73    1
    84    78    77    2
    85    77    76    1
    86    77    79   am
    87    60    61    1
    88    61    62    1
    89    76    73    1
    90    73    72    1
    91    63    62    2
