@<TRIPOS>MOLECULE
tmp/3arpA00.pdb
 185 181 0 0 0
SMALL
GASTEIGER

@<TRIPOS>ATOM
      1  N          2.7150   -3.3130   31.1510 N.3   147  TRP147     -0.1241
      2  CA         3.5030   -2.2240   31.8510 C.3   147  TRP147      0.1605
      3  C          3.4350   -0.9150   31.0940 C.2   147  TRP147      0.2264
      4  O          4.0420    0.0830   31.5350 O.2   147  TRP147     -0.2867
      5  CB         4.9680   -2.6140   32.0820 C.3   147  TRP147      0.0550
      6  CG         5.6280   -2.9960   30.7940 C.ar  147  TRP147      0.0003
      7  CD1        6.3560   -2.1820   30.0440 C.ar  147  TRP147      0.0946
      8  CD2        5.7030   -4.3270   30.1740 C.ar  147  TRP147      0.0152
      9  NE1        6.8410   -2.8260   28.8900 N.ar  147  TRP147     -0.2442
     10  CE2        6.5000   -4.1630   28.9940 C.ar  147  TRP147      0.0810
     11  CE3        5.1840   -5.5850   30.5100 C.ar  147  TRP147      0.0012
     12  CZ2        6.7900   -5.1860   28.1440 C.ar  147  TRP147      0.0191
     13  CZ3        5.4720   -6.6630   29.6140 C.ar  147  TRP147      0.0001
     14  CH2        6.2500   -6.4490   28.4750 C.ar  147  TRP147      0.0015
     15  N          5.1420    4.8090   29.8740 N.3   152  ARG152     -0.1245
     16  CA         4.7050    4.9400   28.4620 C.3   152  ARG152      0.1563
     17  C          3.2890    5.5900   28.3430 C.2   152  ARG152      0.2260
     18  O          2.8840    6.0090   27.2420 O.2   152  ARG152     -0.2867
     19  CB         4.7250    3.5590   27.8010 C.3   152  ARG152      0.0307
     20  CG         6.1710    3.1380   27.4910 C.3   152  ARG152      0.0489
     21  CD         6.2490    1.6140   27.1920 C.3   152  ARG152      0.2205
     22  NE         7.6210    1.1530   26.9570 N.pl3 152  ARG152     -0.0865
     23  CZ         8.4200    0.7810   27.9430 C.cat 152  ARG152      0.5346
     24  NH1        8.0680    0.9250   29.2280 N.pl3 152  ARG152      0.1354
     25  NH2        9.6430    0.3320   27.6390 N.pl3 152  ARG152      0.1354
     26  N          2.6930   -9.6740   29.0540 N.3   171  PHE171     -0.1241
     27  CA         2.8110  -11.1240   28.8400 C.3   171  PHE171      0.1605
     28  C          2.4940  -11.8070   30.1350 C.2   171  PHE171      0.2264
     29  O          2.7610  -11.2340   31.2200 O.2   171  PHE171     -0.2867
     30  CB         4.2680  -11.5130   28.5790 C.3   171  PHE171      0.0534
     31  CG         4.7540  -11.1030   27.2520 C.ar  171  PHE171     -0.0203
     32  CD1        4.5130  -11.9200   26.1420 C.ar  171  PHE171     -0.0042
     33  CD2        5.4150   -9.9250   27.1140 C.ar  171  PHE171     -0.0042
     34  CE1        4.9830  -11.5130   24.9010 C.ar  171  PHE171     -0.0003
     35  CE2        5.8800   -9.5170   25.8770 C.ar  171  PHE171     -0.0003
     36  CZ         5.6600  -10.2950   24.7700 C.ar  171  PHE171     -0.0000
     37  N         15.2940   -7.2320   33.5600 N.3   184  VAL184     -0.1245
     38  CA        14.4050   -6.0750   33.3800 C.3   184  VAL184      0.1561
     39  C         14.7010   -5.0930   34.5050 C.2   184  VAL184      0.2260
     40  O         14.3310   -3.9200   34.4500 O.2   184  VAL184     -0.2867
     41  CB        12.9560   -6.5930   33.4500 C.3   184  VAL184      0.0252
     42  CG1       11.9090   -5.4760   33.5880 C.3   184  VAL184      0.0019
     43  CG2       12.6980   -7.4500   32.1490 C.3   184  VAL184      0.0019
     44  N         10.4230   -6.4840   38.8700 N.3   188  SER188     -0.1217
     45  CA         9.7430   -7.4760   38.0610 C.3   188  SER188      0.1889
     46  C          9.9410   -8.9260   38.5740 C.2   188  SER188      0.2288
     47  O          8.9860   -9.7070   38.6310 O.2   188  SER188     -0.2866
     48  CB        10.2320   -7.3310   36.6520 C.3   188  SER188      0.2089
     49  OG         9.3760   -8.0590   35.8600 O.3   188  SER188     -0.2183
     50  N          1.2790  -11.2340   36.1850 N.3   207  HIS207     -0.1241
     51  CA         2.5300  -10.7230   36.7100 C.3   207  HIS207      0.1621
     52  C          2.3180   -9.4590   37.5450 C.2   207  HIS207      0.2264
     53  O          2.9310   -9.3680   38.6240 O.2   207  HIS207     -0.2867
     54  CB         3.3870  -10.3580   35.5170 C.3   207  HIS207      0.0745
     55  CG         4.8470  -10.1560   35.8360 C.ar  207  HIS207      0.0817
     56  ND1        5.8240  -10.1170   34.8350 N.ar  207  HIS207     -0.2268
     57  CD2        5.5000  -10.0770   37.0200 C.ar  207  HIS207      0.1154
     58  CE1        7.0120  -10.0190   35.4010 C.ar  207  HIS207      0.1986
     59  NE2        6.8410   -9.9410   36.7320 N.ar  207  HIS207     -0.2212
     60  N         10.6130  -12.9010   25.3080 N.3   254  TRP254     -0.1227
     61  CA        12.0390  -13.0480   25.5470 C.3   254  TRP254      0.1737
     62  C         12.3940  -13.2200   27.0590 C.2   254  TRP254      0.2596
     63  O         13.2180  -14.0630   27.3810 O.2   254  TRP254     -0.2718
     64  CB        12.7120  -11.7120   25.1000 C.3   254  TRP254      0.0564
     65  CG        14.2220  -11.6290   25.2700 C.ar  254  TRP254      0.0003
     66  CD1       14.8790  -11.0440   26.2770 C.ar  254  TRP254      0.0946
     67  CD2       15.2230  -12.1740   24.4090 C.ar  254  TRP254      0.0152
     68  NE1       16.2310  -11.1390   26.1360 N.ar  254  TRP254     -0.2442
     69  CE2       16.4650  -11.8810   25.0080 C.ar  254  TRP254      0.0810
     70  CE3       15.1720  -12.9130   23.2210 C.ar  254  TRP254      0.0012
     71  CZ2       17.6940  -12.2420   24.4370 C.ar  254  TRP254      0.0191
     72  CZ3       16.3690  -13.2770   22.6230 C.ar  254  TRP254      0.0001
     73  CH2       17.6220  -12.9380   23.2410 C.ar  254  TRP254      0.0015
     74  N         11.7740  -12.3500   27.8860 N.am  255  THR255     -0.1939
     75  CA        12.0820  -12.2800   29.2880 C.3   255  THR255      0.2028
     76  C         11.5640  -13.5050   30.0800 C.2   255  THR255      0.2642
     77  O         12.1700  -13.8710   31.0800 O.2   255  THR255     -0.2714
     78  CB        11.4640  -10.9280   29.8260 C.3   255  THR255      0.1808
     79  OG1       12.0380   -9.9070   28.9770 O.3   255  THR255     -0.2208
     80  CG2       11.8130  -10.7040   31.1950 C.3   255  THR255      0.0379
     81  N         10.4150  -14.0040   29.6530 N.am  256  LEU256     -0.1977
     82  CA         9.6200  -14.9450   30.5250 C.3   256  LEU256      0.1596
     83  C          9.6070  -16.3830   29.9580 C.2   256  LEU256      0.2287
     84  O          8.6900  -17.1320   30.2760 O.2   256  LEU256     -0.2864
     85  CB         8.1820  -14.3830   30.6840 C.3   256  LEU256      0.0297
     86  CG         8.0880  -13.1190   31.5490 C.3   256  LEU256      0.0022
     87  CD1        6.6610  -12.5240   31.3620 C.3   256  LEU256      0.0001
     88  CD2        8.2370  -13.6970   33.0690 C.3   256  LEU256      0.0001
     89  N         10.7590  -18.2720   23.4640 N.3   294  GLU294     -0.1231
     90  CA        11.9550  -17.7400   22.7530 C.3   294  GLU294      0.1699
     91  C         13.1980  -18.3490   23.4030 C.2   294  GLU294      0.2592
     92  O         13.6780  -17.8940   24.4700 O.2   294  GLU294     -0.2718
     93  CB        11.9630  -16.1890   22.8970 C.3   294  GLU294      0.0402
     94  CG        10.6720  -15.6570   22.3170 C.3   294  GLU294      0.1161
     95  CD        10.6840  -14.1310   22.1610 C.2   294  GLU294      0.3649
     96  OE1       11.7580  -13.5650   22.1360 O.co2 294  GLU294     -0.2457
     97  OE2        9.5890  -13.6130   22.0680 O.co2 294  GLU294     -0.2457
     98  N         13.6540  -19.5440   22.9240 N.am  295  PHE295     -0.1976
     99  CA        13.2350  -20.1890   21.7110 C.3   295  PHE295      0.1639
    100  C         13.5430  -21.6820   21.9130 C.2   295  PHE295      0.2290
    101  O         14.4960  -22.0280   22.6020 O.2   295  PHE295     -0.2864
    102  CB        14.1160  -19.7350   20.4490 C.3   295  PHE295      0.0560
    103  CG        14.1010  -18.2440   20.2070 C.ar  295  PHE295     -0.0200
    104  CD1       13.0990  -17.7280   19.4140 C.ar  295  PHE295     -0.0042
    105  CD2       15.0990  -17.4850   20.7490 C.ar  295  PHE295     -0.0042
    106  CE1       13.0360  -16.3610   19.2060 C.ar  295  PHE295     -0.0003
    107  CE2       15.0810  -16.0710   20.5440 C.ar  295  PHE295     -0.0003
    108  CZ        14.0910  -15.5520   19.7250 C.ar  295  PHE295     -0.0000
    109  N         19.2540  -19.8100   22.3840 N.3   299  GLY299     -0.1225
    110  CA        19.4630  -18.5640   21.6870 C.3   299  GLY299      0.1811
    111  C         18.6450  -17.4500   22.2310 C.2   299  GLY299      0.2280
    112  O         18.5760  -16.3780   21.5530 O.2   299  GLY299     -0.2866
    113  N          8.3470  -13.5500   13.8380 N.3   368  MET368     -0.1245
    114  CA         9.1050  -12.4020   14.4400 C.3   368  MET368      0.1570
    115  C         10.1290  -11.8380   13.4830 C.2   368  MET368      0.2261
    116  O         11.3290  -11.9840   13.7140 O.2   368  MET368     -0.2867
    117  CB         9.8280  -12.8670   15.7230 C.3   368  MET368      0.0387
    118  CG         8.7780  -13.2910   16.8180 C.3   368  MET368      0.0595
    119  SD         9.5690  -14.1520   18.2580 S.3   368  MET368     -0.1393
    120  CE        10.8540  -13.0220   18.7040 C.3   368  MET368      0.0692
    121  N         14.2340   -7.5120   14.8470 N.3   371  ASP371     -0.1239
    122  CA        15.3720   -7.8600   15.7030 C.3   371  ASP371      0.1674
    123  C         16.5010   -8.6480   15.0090 C.2   371  ASP371      0.2266
    124  O         17.2000   -9.3960   15.6960 O.2   371  ASP371     -0.2867
    125  CB        14.9930   -8.5060   17.0730 C.3   371  ASP371      0.1410
    126  CG        14.0630   -7.6700   17.8770 C.2   371  ASP371      0.3668
    127  OD1       13.9890   -6.4220   17.7170 O.co2 371  ASP371     -0.2456
    128  OD2       13.3350   -8.2830   18.7320 O.co2 371  ASP371     -0.2456
    129  N         22.9820   -4.7730   20.6210 N.3   376  TRP376     -0.1241
    130  CA        23.7150   -5.7410   21.4340 C.3   376  TRP376      0.1605
    131  C         25.1010   -5.9300   20.9180 C.2   376  TRP376      0.2264
    132  O         25.9560   -6.4440   21.6720 O.2   376  TRP376     -0.2867
    133  CB        22.9540   -7.1080   21.4900 C.3   376  TRP376      0.0550
    134  CG        22.5310   -7.5250   20.1250 C.ar  376  TRP376      0.0003
    135  CD1       23.2770   -8.1880   19.2000 C.ar  376  TRP376      0.0946
    136  CD2       21.1890   -7.4060   19.5890 C.ar  376  TRP376      0.0152
    137  NE1       22.4760   -8.4620   18.0510 N.ar  376  TRP376     -0.2442
    138  CE2       21.1960   -8.0220   18.2880 C.ar  376  TRP376      0.0810
    139  CE3       20.0200   -6.8950   20.0770 C.ar  376  TRP376      0.0012
    140  CZ2       20.0660   -8.1210   17.4980 C.ar  376  TRP376      0.0191
    141  CZ3       18.8220   -6.9950   19.2640 C.ar  376  TRP376      0.0001
    142  CH2       18.8740   -7.5690   17.9800 C.ar  376  TRP376      0.0015
    143  N         16.0280    0.1220   16.2110 N.3   442  ARG442     -0.1245
    144  CA        17.2410   -0.1870   16.9740 C.3   442  ARG442      0.1563
    145  C         18.3890    0.6600   16.4680 C.2   442  ARG442      0.2260
    146  O         18.3500    1.0340   15.2730 O.2   442  ARG442     -0.2867
    147  CB        17.5930   -1.7100   16.9050 C.3   442  ARG442      0.0307
    148  CG        16.5100   -2.5540   17.5890 C.3   442  ARG442      0.0489
    149  CD        17.0510   -4.0070   17.7180 C.3   442  ARG442      0.2205
    150  NE        15.9790   -4.7260   18.4380 N.pl3 442  ARG442     -0.0865
    151  CZ        15.8670   -4.7810   19.7640 C.cat 442  ARG442      0.5346
    152  NH1       16.8330   -4.2450   20.5620 N.pl3 442  ARG442      0.1354
    153  NH2       14.8050   -5.4170   20.3270 N.pl3 442  ARG442      0.1354
    154  N         15.2690    2.0150   26.6340 N.3   477  GLU477     -0.1301
    155  CA        16.4990    1.3210   26.9710 C.3   477  GLU477      0.1252
    156  C         17.5040    1.6070   25.8890 C.3   477  GLU477      0.2009
    157  O         17.0900    1.8900   24.6890 O.3   477  GLU477     -0.2188
    158  CB        16.1720   -0.1030   27.1220 C.3   477  GLU477      0.0335
    159  CG        16.2310   -0.9420   25.9670 C.3   477  GLU477      0.1156
    160  CD        16.4390   -2.3680   26.5180 C.2   477  GLU477      0.3649
    161  OE1       15.4270   -2.8970   27.0290 O.co2 477  GLU477     -0.2457
    162  OE2       17.5510   -2.9290   26.5890 O.co2 477  GLU477     -0.2457
    163  N          4.9260   -5.2630   16.8660 N.3   549  TRP549     -0.1227
    164  CA         5.4320   -5.0400   18.2350 C.3   549  TRP549      0.1737
    165  C          5.9300   -3.5820   18.2610 C.2   549  TRP549      0.2595
    166  O          6.8020   -3.2410   17.4990 O.2   549  TRP549     -0.2718
    167  CB         6.5880   -6.0510   18.5580 C.3   549  TRP549      0.0564
    168  CG         7.1720   -5.7400   19.9110 C.ar  549  TRP549      0.0003
    169  CD1        8.1360   -4.7420   20.1960 C.ar  549  TRP549      0.0946
    170  CD2        6.7990   -6.2760   21.1710 C.ar  549  TRP549      0.0152
    171  NE1        8.3740   -4.6710   21.5890 N.ar  549  TRP549     -0.2442
    172  CE2        7.5180   -5.5620   22.1730 C.ar  549  TRP549      0.0810
    173  CE3        5.8400   -7.2040   21.5750 C.ar  549  TRP549      0.0012
    174  CZ2        7.3810   -5.8790   23.5460 C.ar  549  TRP549      0.0191
    175  CZ3        5.7380   -7.4780   22.9440 C.ar  549  TRP549      0.0001
    176  CH2        6.5080   -6.8170   23.8550 C.ar  549  TRP549      0.0015
    177  N          5.4810   -2.7220   19.1870 N.am  550  GLU550     -0.1979
    178  CA         4.4290   -2.8890   20.1780 C.3   550  GLU550      0.1602
    179  C          3.5180   -1.6020   20.0540 C.2   550  GLU550      0.2287
    180  O          4.0730   -0.5450   19.6800 O.2   550  GLU550     -0.2864
    181  CB         5.0050   -2.9670   21.6610 C.3   550  GLU550      0.0415
    182  CG         5.9480   -1.7460   21.9850 C.3   550  GLU550      0.1163
    183  CD         6.5870   -1.9110   23.3290 C.2   550  GLU550      0.3649
    184  OE1        7.7850   -2.3230   23.4180 O.co2 550  GLU550     -0.2457
    185  OE2        5.9220   -1.6310   24.3910 O.co2 550  GLU550     -0.2457
@<TRIPOS>BOND
     1   115   116    2
     2   115   114    1
     3   113   114    1
     4   114   117    1
     5   121   122    1
     6   123   124    2
     7   123   122    1
     8   146   145    2
     9   122   125    1
    10   117   118    1
    11   143   144    1
    12   145   144    1
    13   118   119    1
    14   163   164    1
    15   147   144    1
    16   147   148    1
    17   125   126    1
    18   140   142   ar
    19   140   138   ar
    20   166   165    2
    21   148   149    1
    22   127   126   ar
    23   149   150    1
    24   126   128   ar
    25   142   141   ar
    26   137   138   ar
    27   137   135   ar
    28   164   165    1
    29   164   167    1
    30   119   120    1
    31   165   177   am
    32   138   136   ar
    33   150   151    2
    34   167   168    1
    35   177   178    1
    36   135   134   ar
    37   106   104   ar
    38   106   108   ar
    39   141   139   ar
    40   104   103   ar
    41   136   139   ar
    42   136   134   ar
    43   180   179    2
    44   108   107   ar
    45   151   153    1
    46   151   152    1
    47   168   169   ar
    48   168   170   ar
    49   179   178    1
    50   134   133    1
    51   178   181    1
    52   169   171   ar
    53   103   102    1
    54   103   105   ar
    55   102    99    1
    56   107   105   ar
    57   129   130    1
    58   131   130    1
    59   131   132    2
    60   170   173   ar
    61   170   172   ar
    62   130   133    1
    63   112   111    2
    64   173   175   ar
    65   171   172   ar
    66   181   182    1
    67   110   111    1
    68   110   109    1
    69    99   100    1
    70    99    98    1
    71   100   101    2
    72   182   183    1
    73    97    95   ar
    74    96    95   ar
    75    95    94    1
    76   172   174   ar
    77    94    93    1
    78    72    70   ar
    79    72    73   ar
    80    90    93    1
    81    90    91    1
    82    90    89    1
    83    98    91   am
    84   175   176   ar
    85    70    67   ar
    86    73    71   ar
    87   183   184   ar
    88   183   185   ar
    89    91    92    2
    90   174   176   ar
    91    67    69   ar
    92    67    65   ar
    93    71    69   ar
    94   157   156    1
    95    36    34   ar
    96    36    35   ar
    97    34    32   ar
    98    69    68   ar
    99    64    65    1
   100    64    61    1
   101    65    66   ar
   102    60    61    1
   103    61    62    1
   104    35    33   ar
   105   156   155    1
   106   159   160    1
   107   159   158    1
   108    68    66   ar
   109    32    31   ar
   110   160   162   ar
   111   160   161   ar
   112   154   155    1
   113    22    21    1
   114    22    23    2
   115   155   158    1
   116    62    63    2
   117    62    74   am
   118    33    31   ar
   119    21    20    1
   120    18    17    2
   121    31    30    1
   122    20    19    1
   123    25    23    1
   124    19    16    1
   125    74    75    1
   126    23    24    1
   127    12    14   ar
   128    12    10   ar
   129    17    16    1
   130    16    15    1
   131    14    13   ar
   132    30    27    1
   133    27    26    1
   134    27    28    1
   135     9    10   ar
   136     9     7   ar
   137    79    78    1
   138    10     8   ar
   139    75    78    1
   140    75    76    1
   141    13    11   ar
   142    81    76   am
   143    81    82    1
   144    78    80    1
   145    83    84    2
   146    83    82    1
   147     7     6   ar
   148    76    77    2
   149    28    29    2
   150     8    11   ar
   151     8     6   ar
   152    82    85    1
   153    85    86    1
   154     6     5    1
   155     3     4    2
   156     3     2    1
   157     1     2    1
   158    87    86    1
   159    86    88    1
   160     2     5    1
   161    43    41    1
   162    38    41    1
   163    38    37    1
   164    38    39    1
   165    41    42    1
   166    40    39    2
   167    56    58   ar
   168    56    55   ar
   169    58    59   ar
   170    54    55    1
   171    54    51    1
   172    55    57   ar
   173    49    48    1
   174    50    51    1
   175    48    45    1
   176    51    52    1
   177    59    57   ar
   178    52    53    2
   179    45    46    1
   180    45    44    1
   181    46    47    2
