@<TRIPOS>MOLECULE
tmp/3arqA00.pdb
 144 140 0 0 0
SMALL
GASTEIGER

@<TRIPOS>ATOM
      1  N         10.6050  -12.6070   25.6160 N.3   254  TRP254     -0.1227
      2  CA        12.0710  -12.7180   25.8260 C.3   254  TRP254      0.1737
      3  C         12.4780  -13.0170   27.2940 C.2   254  TRP254      0.2596
      4  O         13.3490  -13.8130   27.5270 O.2   254  TRP254     -0.2718
      5  CB        12.7000  -11.3670   25.4260 C.3   254  TRP254      0.0564
      6  CG        14.2080  -11.3270   25.5380 C.ar  254  TRP254      0.0003
      7  CD1       14.9230  -10.7030   26.5220 C.ar  254  TRP254      0.0946
      8  CD2       15.1600  -11.8610   24.6210 C.ar  254  TRP254      0.0152
      9  NE1       16.2880  -10.8840   26.3120 N.ar  254  TRP254     -0.2442
     10  CE2       16.4520  -11.5920   25.1560 C.ar  254  TRP254      0.0810
     11  CE3       15.0610  -12.5700   23.3960 C.ar  254  TRP254      0.0012
     12  CZ2       17.6440  -11.9700   24.4850 C.ar  254  TRP254      0.0191
     13  CZ3       16.2380  -12.9200   22.7200 C.ar  254  TRP254      0.0001
     14  CH2       17.5110  -12.6290   23.3010 C.ar  254  TRP254      0.0015
     15  N         11.9120  -12.2620   28.2300 N.am  255  THR255     -0.1953
     16  CA        12.3260  -12.3830   29.6200 C.3   255  THR255      0.1897
     17  C         11.6220  -13.4600   30.4370 C.2   255  THR255      0.2313
     18  O         12.1000  -13.8300   31.5270 O.2   255  THR255     -0.2863
     19  CB        12.1580  -11.0470   30.4150 C.3   255  THR255      0.1794
     20  OG1       10.8040  -10.6990   30.3940 O.3   255  THR255     -0.2208
     21  CG2       12.9750   -9.9330   29.6600 C.3   255  THR255      0.0378
     22  N         10.8000  -18.1420   23.5570 N.3   294  GLU294     -0.1231
     23  CA        11.9900  -17.5750   22.8480 C.3   294  GLU294      0.1699
     24  C         13.2260  -18.2130   23.5410 C.2   294  GLU294      0.2592
     25  O         13.7070  -17.7180   24.6270 O.2   294  GLU294     -0.2718
     26  CB        11.9780  -16.0450   23.0060 C.3   294  GLU294      0.0402
     27  CG        10.7020  -15.4700   22.4310 C.3   294  GLU294      0.1161
     28  CD        10.7070  -13.9360   22.3510 C.2   294  GLU294      0.3649
     29  OE1       11.7740  -13.3410   22.4320 O.co2 294  GLU294     -0.2457
     30  OE2        9.5950  -13.4050   22.2720 O.co2 294  GLU294     -0.2457
     31  N         13.7240  -19.3810   23.0290 N.am  295  PHE295     -0.1976
     32  CA        13.2870  -20.0540   21.8110 C.3   295  PHE295      0.1639
     33  C         13.5690  -21.5550   22.0130 C.2   295  PHE295      0.2290
     34  O         14.5500  -21.8660   22.7000 O.2   295  PHE295     -0.2864
     35  CB        14.1550  -19.5980   20.5670 C.3   295  PHE295      0.0560
     36  CG        14.1640  -18.0910   20.3100 C.ar  295  PHE295     -0.0200
     37  CD1       13.1690  -17.5570   19.5310 C.ar  295  PHE295     -0.0042
     38  CD2       15.1400  -17.3190   20.8640 C.ar  295  PHE295     -0.0042
     39  CE1       13.1320  -16.1710   19.2790 C.ar  295  PHE295     -0.0003
     40  CE2       15.1060  -15.9000   20.6210 C.ar  295  PHE295     -0.0003
     41  CZ        14.1450  -15.3690   19.8280 C.ar  295  PHE295     -0.0000
     42  N         19.2880  -19.6500   22.5450 N.3   299  GLY299     -0.1210
     43  CA        19.6070  -18.4430   21.8200 C.3   299  GLY299      0.1956
     44  C         18.8270  -17.2380   22.3160 C.2   299  GLY299      0.2612
     45  O         18.8620  -16.1700   21.6420 O.2   299  GLY299     -0.2717
     46  N         18.0550  -17.3950   23.3770 N.am  300  GLY300     -0.1956
     47  CA        17.2760  -16.2950   23.9670 C.3   300  GLY300      0.1869
     48  C         17.9980  -15.6640   25.1450 C.2   300  GLY300      0.2309
     49  O         19.2440  -15.6270   25.2210 O.2   300  GLY300     -0.2863
     50  N         21.3330  -17.9020   28.6880 N.3   303  ALA303     -0.1245
     51  CA        22.4540  -18.4160   27.9990 C.3   303  ALA303      0.1562
     52  C         22.7170  -19.8840   28.3380 C.2   303  ALA303      0.2260
     53  O         23.3450  -20.5930   27.5510 O.2   303  ALA303     -0.2867
     54  CB        23.7220  -17.5200   28.3880 C.3   303  ALA303      0.0290
     55  N         16.8820  -20.6740   14.4150 N.3   349  LYS349     -0.1245
     56  CA        15.7370  -20.8950   15.2890 C.3   349  LYS349      0.1561
     57  C         14.7580  -21.8390   14.5900 C.2   349  LYS349      0.2260
     58  O         14.2240  -22.8000   15.2090 O.2   349  LYS349     -0.2867
     59  CB        15.0050  -19.5460   15.5790 C.3   349  LYS349      0.0271
     60  CG        15.9020  -18.4820   16.2330 C.3   349  LYS349      0.0035
     61  CD        16.5570  -19.0820   17.4550 C.3   349  LYS349      0.0206
     62  CE        17.3030  -17.9130   18.2850 C.3   349  LYS349      0.1093
     63  NZ        18.5190  -17.4650   17.5130 N.3   349  LYS349     -0.1314
     64  N          8.3730  -13.5740   13.8790 N.3   368  MET368     -0.1245
     65  CA         9.0530  -12.3770   14.4900 C.3   368  MET368      0.1570
     66  C         10.0690  -11.8360   13.4930 C.2   368  MET368      0.2261
     67  O         11.2830  -12.0310   13.6810 O.2   368  MET368     -0.2867
     68  CB         9.7650  -12.8000   15.7510 C.3   368  MET368      0.0387
     69  CG         8.7640  -13.2640   16.8440 C.3   368  MET368      0.0595
     70  SD         9.6500  -14.0290   18.2870 S.3   368  MET368     -0.1393
     71  CE        10.8020  -12.9030   18.7350 C.3   368  MET368      0.0692
     72  N         14.1970   -7.5670   14.8900 N.3   371  ASP371     -0.1225
     73  CA        15.3490   -7.8990   15.7720 C.3   371  ASP371      0.1805
     74  C         16.4360   -8.6790   15.0550 C.2   371  ASP371      0.2597
     75  O         17.1750   -9.4280   15.7270 O.2   371  ASP371     -0.2718
     76  CB        14.9300   -8.6270   17.0670 C.3   371  ASP371      0.1424
     77  CG        13.9500   -7.8450   17.8640 C.2   371  ASP371      0.3668
     78  OD1       13.9530   -6.5590   17.8250 O.co2 371  ASP371     -0.2456
     79  OD2       13.1000   -8.5090   18.6030 O.co2 371  ASP371     -0.2456
     80  N         16.6570   -8.3910   13.7690 N.am  372  PHE372     -0.1976
     81  CA        17.7170   -9.1700   13.0660 C.3   372  PHE372      0.1639
     82  C         19.0990   -8.6370   13.4170 C.2   372  PHE372      0.2290
     83  O         20.1040   -9.3970   13.3000 O.2   372  PHE372     -0.2864
     84  CB        17.5200   -9.0320   11.5860 C.3   372  PHE372      0.0560
     85  CG        16.2030   -9.5700   11.0570 C.ar  372  PHE372     -0.0200
     86  CD1       15.5990  -10.6790   11.6860 C.ar  372  PHE372     -0.0042
     87  CD2       15.6120   -9.0080    9.8770 C.ar  372  PHE372     -0.0042
     88  CE1       14.3950  -11.1950   11.1610 C.ar  372  PHE372     -0.0003
     89  CE2       14.4170   -9.4940    9.3530 C.ar  372  PHE372     -0.0003
     90  CZ        13.7900  -10.6150    9.9880 C.ar  372  PHE372     -0.0000
     91  N         22.8330   -5.0120   20.7950 N.3   376  TRP376     -0.1227
     92  CA        23.5720   -5.9990   21.5570 C.3   376  TRP376      0.1737
     93  C         25.0230   -6.1510   21.0410 C.2   376  TRP376      0.2595
     94  O         25.8880   -6.6390   21.7860 O.2   376  TRP376     -0.2718
     95  CB        22.8550   -7.3410   21.5360 C.3   376  TRP376      0.0564
     96  CG        22.4210   -7.7510   20.1210 C.ar  376  TRP376      0.0003
     97  CD1       23.1360   -8.4280   19.1870 C.ar  376  TRP376      0.0946
     98  CD2       21.1050   -7.5440   19.5740 C.ar  376  TRP376      0.0152
     99  NE1       22.3500   -8.5880   18.0180 N.ar  376  TRP376     -0.2442
    100  CE2       21.1000   -8.0960   18.2620 C.ar  376  TRP376      0.0810
    101  CE3       19.9430   -6.9770   20.0840 C.ar  376  TRP376      0.0012
    102  CZ2       19.8670   -8.0860   17.4440 C.ar  376  TRP376      0.0191
    103  CZ3       18.7920   -6.9820   19.3200 C.ar  376  TRP376      0.0001
    104  CH2       18.7740   -7.5000   18.0060 C.ar  376  TRP376      0.0015
    105  N         25.3150   -5.7910   19.8040 N.am  377  ASN377     -0.1974
    106  CA        26.6990   -5.6630   19.3510 C.3   377  ASN377      0.1688
    107  C         26.8830   -4.4200   18.4870 C.2   377  ASN377      0.2292
    108  O         25.9740   -3.5500   18.4790 O.2   377  ASN377     -0.2864
    109  CB        27.1180   -6.9830   18.6620 C.3   377  ASN377      0.1181
    110  CG        26.3510   -7.1720   17.3610 C.2   377  ASN377      0.2629
    111  OD1       25.9760   -6.1960   16.7130 O.2   377  ASN377     -0.2716
    112  ND2       26.0720   -8.4060   16.9880 N.am  377  ASN377     -0.0877
    113  N         19.9160  -13.0960    8.2390 N.3   414  TYR414     -0.1241
    114  CA        18.6530  -12.7810    8.9530 C.3   414  TYR414      0.1605
    115  C         17.8510  -11.7390    8.1860 C.2   414  TYR414      0.2264
    116  O         18.1310  -10.5390    8.3070 O.2   414  TYR414     -0.2867
    117  CB        18.9270  -12.2650   10.3840 C.3   414  TYR414      0.0534
    118  CG        19.2040  -13.3270   11.4340 C.ar  414  TYR414     -0.0201
    119  CD1       19.6140  -14.6040   11.1000 C.ar  414  TYR414     -0.0009
    120  CD2       19.0370  -13.0230   12.7600 C.ar  414  TYR414     -0.0009
    121  CE1       19.8510  -15.5840   12.0860 C.ar  414  TYR414      0.0417
    122  CE2       19.2850  -13.9590   13.7650 C.ar  414  TYR414      0.0417
    123  CZ        19.7190  -15.2290   13.4400 C.ar  414  TYR414      0.1957
    124  OH        19.9580  -16.1990   14.4230 O.3   414  TYR414     -0.2866
    125  N         15.9910    0.0230   16.3140 N.3   442  ARG442     -0.1245
    126  CA        17.1620   -0.3150   17.1360 C.3   442  ARG442      0.1563
    127  C         18.3000    0.5310   16.6350 C.2   442  ARG442      0.2260
    128  O         18.2710    0.9530   15.4390 O.2   442  ARG442     -0.2867
    129  CB        17.4710   -1.8400   17.0480 C.3   442  ARG442      0.0307
    130  CG        16.3920   -2.6820   17.7430 C.3   442  ARG442      0.0489
    131  CD        16.8870   -4.1190   17.8570 C.3   442  ARG442      0.2205
    132  NE        15.9090   -4.8770   18.6150 N.pl3 442  ARG442     -0.0865
    133  CZ        15.8850   -4.9870   19.9320 C.cat 442  ARG442      0.5346
    134  NH1       16.8200   -4.4170   20.7130 N.pl3 442  ARG442      0.1354
    135  NH2       14.8720   -5.7510   20.4850 N.pl3 442  ARG442      0.1354
    136  N         15.0370    1.9610   26.7860 N.3   477  GLU477     -0.1301
    137  CA        16.2740    1.2460   27.1270 C.3   477  GLU477      0.1252
    138  C         17.2840    1.5460   26.0730 C.3   477  GLU477      0.2009
    139  O         16.9210    1.8140   24.8650 O.3   477  GLU477     -0.2188
    140  CB        16.0090   -0.2240   27.2350 C.3   477  GLU477      0.0335
    141  CG        15.5080   -0.8040   25.9900 C.3   477  GLU477      0.1156
    142  CD        15.6070   -2.3510   26.0040 C.2   477  GLU477      0.3649
    143  OE1       16.6560   -2.8820   26.4650 O.co2 477  GLU477     -0.2457
    144  OE2       14.6620   -3.0240   25.4980 O.co2 477  GLU477     -0.2457
@<TRIPOS>BOND
     1   115   116    2
     2   115   114    1
     3   113   114    1
     4   114   117    1
     5    89    87   ar
     6    89    90   ar
     7    87    85   ar
     8    90    88   ar
     9   117   118    1
    10    85    84    1
    11    85    86   ar
    12   119   118   ar
    13   119   121   ar
    14    88    86   ar
    15   118   120   ar
    16    84    81    1
    17   121   123   ar
    18   120   122   ar
    19    81    82    1
    20    81    80    1
    21    83    82    2
    22   123   122   ar
    23   123   124    1
    24    66    67    2
    25    66    65    1
    26    80    74   am
    27    64    65    1
    28    55    56    1
    29    65    68    1
    30    57    58    2
    31    57    56    1
    32    72    73    1
    33    74    75    2
    34    74    73    1
    35    56    59    1
    36   128   127    2
    37    59    60    1
    38    68    69    1
    39    73    76    1
    40    60    61    1
    41   125   126    1
    42   127   126    1
    43   111   110    2
    44    69    70    1
    45   112   110   am
    46   129   126    1
    47   129   130    1
    48    76    77    1
    49   110   109    1
    50   102   104   ar
    51   102   100   ar
    52    61    62    1
    53    63    62    1
    54   130   131    1
    55    78    77   ar
    56   131   132    1
    57    77    79   ar
    58   104   103   ar
    59    99   100   ar
    60    99    97   ar
    61   100    98   ar
    62    70    71    1
    63   108   107    2
    64   107   106    1
    65   132   133    2
    66   109   106    1
    67    97    96   ar
    68    39    37   ar
    69    39    41   ar
    70   103   101   ar
    71   106   105    1
    72    37    36   ar
    73    98   101   ar
    74    98    96   ar
    75   105    93   am
    76    41    40   ar
    77   133   135    1
    78   133   134    1
    79    96    95    1
    80    36    35    1
    81    36    38   ar
    82    35    32    1
    83    40    38   ar
    84    91    92    1
    85    93    92    1
    86    93    94    2
    87    95    92    1
    88    45    44    2
    89    32    33    1
    90    32    31    1
    91    43    44    1
    92    43    42    1
    93    33    34    2
    94    30    28   ar
    95    44    46   am
    96    28    27    1
    97    28    29   ar
    98    27    26    1
    99    13    14   ar
   100    13    11   ar
   101    23    26    1
   102    23    24    1
   103    23    22    1
   104    31    24   am
   105    14    12   ar
   106    46    47    1
   107    11     8   ar
   108    24    25    2
   109    47    48    1
   110    12    10   ar
   111     8    10   ar
   112     8     6   ar
   113   139   138    1
   114    48    49    2
   115    10     9   ar
   116     5     6    1
   117     5     2    1
   118   144   142   ar
   119     6     7   ar
   120     1     2    1
   121     2     3    1
   122   141   142    1
   123   141   140    1
   124   142   143   ar
   125   138   137    1
   126     9     7   ar
   127   136   137    1
   128   137   140    1
   129     3     4    2
   130     3    15   am
   131    53    52    2
   132    51    52    1
   133    51    54    1
   134    51    50    1
   135    15    16    1
   136    16    19    1
   137    16    17    1
   138    21    19    1
   139    20    19    1
   140    17    18    2
