@<TRIPOS>MOLECULE
tmp/3artA02.pdb
 101 98 0 0 0
SMALL
GASTEIGER

@<TRIPOS>ATOM
      1  N         32.6360   -7.3400   16.8420 N.3   122  THR122     -0.1203
      2  CA        32.3630   -8.5300   16.0250 C.3   122  THR122      0.1994
      3  C         30.8540   -8.6480   15.8140 C.2   122  THR122      0.2618
      4  O         30.1050   -8.6880   16.7960 O.2   122  THR122     -0.2717
      5  CB        32.8930   -9.8010   16.7440 C.3   122  THR122      0.1784
      6  OG1       34.3200   -9.7820   16.7030 O.3   122  THR122     -0.2211
      7  CG2       32.3910  -11.1350   16.0970 C.3   122  THR122      0.0376
      8  N         30.4170   -8.6530   14.5460 N.am  123  MET123     -0.1965
      9  CA        28.9890   -8.6820   14.1610 C.3   123  MET123      0.1736
     10  C         28.3650  -10.0720   14.0360 C.2   123  MET123      0.2616
     11  O         29.0440  -11.0330   13.7310 O.2   123  MET123     -0.2715
     12  CB        28.7700   -7.9270   12.8350 C.3   123  MET123      0.0427
     13  CG        29.2870   -6.5030   12.7870 C.3   123  MET123      0.0599
     14  SD        28.7910   -5.3780   14.1320 S.3   123  MET123     -0.1393
     15  CE        27.0320   -5.1710   13.8880 C.3   123  MET123      0.0692
     16  N         27.0470  -10.1600   14.2330 N.am  124  ASN124     -0.1958
     17  CA        26.2820  -11.4090   14.0650 C.3   124  ASN124      0.1819
     18  C         24.9010  -11.0240   13.5190 C.2   124  ASN124      0.2621
     19  O         23.8840  -11.1410   14.2020 O.2   124  ASN124     -0.2715
     20  CB        26.2390  -12.1610   15.4050 C.3   124  ASN124      0.1195
     21  CG        25.2820  -13.3530   15.4150 C.2   124  ASN124      0.2630
     22  OD1       25.0150  -13.9760   14.3960 O.2   124  ASN124     -0.2716
     23  ND2       24.7450  -13.6500   16.5800 N.am  124  ASN124     -0.0877
     24  N         24.8950  -10.5480   12.2670 N.am  125  VAL125     -0.1977
     25  CA        23.6990  -10.0350   11.5770 C.3   125  VAL125      0.1596
     26  C         22.9700  -11.1310   10.7840 C.2   125  VAL125      0.2287
     27  O         23.6100  -11.8810   10.0580 O.2   125  VAL125     -0.2864
     28  CB        24.1250   -8.9360   10.5410 C.3   125  VAL125      0.0276
     29  CG1       22.9260   -8.4250    9.7370 C.3   125  VAL125      0.0022
     30  CG2       24.9390   -7.8100   11.2350 C.3   125  VAL125      0.0022
     31  N         21.7380  -12.9490    7.8250 N.3   127  PRO127     -0.2116
     32  CA        22.2120  -12.7440    6.4280 C.3   127  PRO127      0.1372
     33  C         21.0910  -12.4390    5.4020 C.2   127  PRO127      0.2244
     34  O         21.3980  -12.0940    4.2840 O.2   127  PRO127     -0.2868
     35  CB        22.9500  -14.0570    6.0990 C.3   127  PRO127      0.0268
     36  CG        22.1630  -15.1150    6.8880 C.3   127  PRO127      0.0207
     37  CD        21.8680  -14.3650    8.2480 C.3   127  PRO127      0.0892
     38  N         19.6510   -9.7490    5.6030 N.3   129  ASN129     -0.1225
     39  CA        20.0490   -8.3550    5.3130 C.3   129  ASN129      0.1785
     40  C         21.0730   -8.3390    4.1540 C.2   129  ASN129      0.2597
     41  O         22.1460   -8.8880    4.3040 O.2   129  ASN129     -0.2718
     42  CB        20.6320   -7.6340    6.5540 C.3   129  ASN129      0.1169
     43  CG        19.5720   -7.3250    7.6250 C.2   129  ASN129      0.2627
     44  OD1       18.8720   -6.2840    7.5620 O.2   129  ASN129     -0.2716
     45  ND2       19.4740   -8.2070    8.6350 N.am  129  ASN129     -0.0877
     46  N         20.7590   -7.6970    3.0270 N.am  130  LYS130     -0.1966
     47  CA        21.6700   -7.7080    1.8770 C.3   130  LYS130      0.1728
     48  C         22.7280   -6.6010    1.8820 C.2   130  LYS130      0.2616
     49  O         22.6670   -5.6860    2.6890 O.2   130  LYS130     -0.2715
     50  CB        20.8660   -7.7030    0.5700 C.3   130  LYS130      0.0311
     51  CG        20.2100   -9.0600    0.3120 C.3   130  LYS130      0.0038
     52  CD        18.8180   -8.9170   -0.2450 C.3   130  LYS130      0.0206
     53  CE        18.7790   -9.1530   -1.7710 C.3   130  LYS130      0.1093
     54  NZ        17.6560  -10.1180   -2.0830 N.3   130  LYS130     -0.1314
     55  N         23.7200   -6.7200    1.0090 N.am  131  SER131     -0.1950
     56  CA        24.7080   -5.6720    0.7350 C.3   131  SER131      0.1924
     57  C         24.2050   -4.6830   -0.3140 C.2   131  SER131      0.2314
     58  O         23.6750   -5.0740   -1.3270 O.2   131  SER131     -0.2863
     59  CB        26.0050   -6.2850    0.2100 C.3   131  SER131      0.2116
     60  OG        26.8600   -6.5290    1.2840 O.3   131  SER131     -0.2180
     61  N         22.2800   -4.4720   11.2690 N.3   160  PRO160     -0.2102
     62  CA        23.0440   -4.4690   10.0200 C.3   160  PRO160      0.1504
     63  C         23.6850   -3.0930    9.8110 C.2   160  PRO160      0.2576
     64  O         23.2030   -2.3080    8.9510 O.2   160  PRO160     -0.2718
     65  CB        21.9510   -4.7310    8.9470 C.3   160  PRO160      0.0282
     66  CG        20.6900   -4.2490    9.5300 C.3   160  PRO160      0.0208
     67  CD        20.8270   -4.4340   11.0430 C.3   160  PRO160      0.0893
     68  N         24.7440   -2.7850   10.5860 N.am  161  VAL161     -0.1966
     69  CA        25.2790   -1.4360   10.6060 C.3   161  VAL161      0.1727
     70  C         25.6470   -0.8650    9.2560 C.2   161  VAL161      0.2616
     71  O         25.6440    0.3600    9.0880 O.2   161  VAL161     -0.2715
     72  CB        26.5450   -1.3350   11.4160 C.3   161  VAL161      0.0290
     73  CG1       26.1900   -1.4550   12.8170 C.3   161  VAL161      0.0023
     74  CG2       27.5450   -2.4760   11.0230 C.3   161  VAL161      0.0023
     75  N         26.0690   -1.7120    8.3210 N.am  162  ASP162     -0.1957
     76  CA        26.5940   -1.2090    7.0590 C.3   162  ASP162      0.1840
     77  C         25.4840   -0.6750    6.1680 C.2   162  ASP162      0.2622
     78  O         25.7760    0.0750    5.2030 O.2   162  ASP162     -0.2715
     79  CB        27.3790   -2.2740    6.3060 C.3   162  ASP162      0.1450
     80  CG        28.6760   -2.6230    6.9990 C.2   162  ASP162      0.3671
     81  OD1       29.2740   -1.7350    7.6610 O.co2 162  ASP162     -0.2456
     82  OD2       29.0590   -3.8000    6.9000 O.co2 162  ASP162     -0.2456
     83  N         24.2340   -1.0160    6.5280 N.am  163  ASN163     -0.1972
     84  CA        23.0720   -0.5460    5.8260 C.3   163  ASN163      0.1688
     85  C         22.4260    0.6680    6.4790 C.2   163  ASN163      0.2292
     86  O         21.2620    1.0350    6.1510 O.2   163  ASN163     -0.2864
     87  CB        22.0480   -1.6670    5.6310 C.3   163  ASN163      0.1181
     88  CG        22.5090   -2.6980    4.6060 C.2   163  ASN163      0.2629
     89  OD1       23.4440   -2.4610    3.8400 O.2   163  ASN163     -0.2716
     90  ND2       21.8380   -3.8240    4.5630 N.am  163  ASN163     -0.0877
     91  N         34.3000    0.0490   14.5270 N.3   241  ARG241     -0.1245
     92  CA        34.1640   -0.6810   13.2820 C.3   241  ARG241      0.1563
     93  C         33.6920    0.2480   12.1260 C.2   241  ARG241      0.2260
     94  O         34.1270    0.1080   10.9920 O.2   241  ARG241     -0.2867
     95  CB        33.1790   -1.8570   13.4560 C.3   241  ARG241      0.0307
     96  CG        33.1350   -2.8200   12.2220 C.3   241  ARG241      0.0489
     97  CD        31.8950   -3.6970   12.3200 C.3   241  ARG241      0.2205
     98  NE        31.8140   -4.7170   11.2820 N.pl3 241  ARG241     -0.0865
     99  CZ        31.2770   -4.5540   10.0640 C.cat 241  ARG241      0.5346
    100  NH1       30.7950   -3.3710    9.6490 N.pl3 241  ARG241      0.1354
    101  NH2       31.2260   -5.5870    9.2360 N.pl3 241  ARG241      0.1354
@<TRIPOS>BOND
     1    54    53    1
     2    53    52    1
     3    58    57    2
     4    57    56    1
     5    52    51    1
     6    59    56    1
     7    59    60    1
     8    51    50    1
     9    50    47    1
    10    56    55    1
    11    55    48   am
    12    47    48    1
    13    47    46    1
    14    48    49    2
    15    46    40   am
    16    89    88    2
    17    40    41    2
    18    40    39    1
    19    34    33    2
    20    90    88   am
    21    88    87    1
    22    78    77    2
    23    39    38    1
    24    39    42    1
    25    33    32    1
    26    87    84    1
    27    84    85    1
    28    84    83    1
    29    35    32    1
    30    35    36    1
    31    86    85    2
    32    77    83   am
    33    77    76    1
    34    79    80    1
    35    79    76    1
    36    32    31    1
    37    42    43    1
    38    36    37    1
    39    82    80   ar
    40    80    81   ar
    41    76    75    1
    42    44    43    2
    43    43    45   am
    44    31    37    1
    45    75    70   am
    46    65    66    1
    47    65    62    1
    48    64    63    2
    49    71    70    2
    50   101    99    1
    51    70    69    1
    52    66    67    1
    53   100    99    1
    54    29    28    1
    55    63    62    1
    56    63    68   am
    57    62    61    1
    58    27    26    2
    59    99    98    2
    60    28    30    1
    61    28    25    1
    62    68    69    1
    63    69    72    1
    64    26    25    1
    65    94    93    2
    66    74    72    1
    67    67    61    1
    68    98    97    1
    69    72    73    1
    70    25    24    1
    71    93    92    1
    72    96    97    1
    73    96    95    1
    74    24    18   am
    75    13    12    1
    76    13    14    1
    77    12     9    1
    78    92    95    1
    79    92    91    1
    80    18    17    1
    81    18    19    2
    82    11    10    2
    83    15    14    1
    84    10     9    1
    85    10    16   am
    86    17    16    1
    87    17    20    1
    88     9     8    1
    89    22    21    2
    90     8     3   am
    91    20    21    1
    92    21    23   am
    93     3     2    1
    94     3     4    2
    95     2     5    1
    96     2     1    1
    97     7     5    1
    98     6     5    1
