@<TRIPOS>MOLECULE
tmp/3artA00.pdb
 114 107 0 0 0
SMALL
GASTEIGER

@<TRIPOS>ATOM
      1  N          1.4320    5.1080   33.9220 N.3   183  SER183     -0.1217
      2  CA         0.1720    4.5140   33.3430 C.3   183  SER183      0.1889
      3  C          0.4410    3.3600   32.4000 C.2   183  SER183      0.2288
      4  O         -0.4630    2.5670   32.0900 O.2   183  SER183     -0.2866
      5  CB        -0.6830    5.5880   32.6150 C.3   183  SER183      0.2089
      6  OG        -0.9400    6.6370   33.5370 O.3   183  SER183     -0.2183
      7  N          7.0470    8.6640   22.8860 N.3   254  GLY254     -0.1210
      8  CA         5.6000    8.7680   23.2390 C.3   254  GLY254      0.1956
      9  C          5.2870    8.7750   24.7300 C.2   254  GLY254      0.2612
     10  O          4.4870    9.6400   25.2340 O.2   254  GLY254     -0.2717
     11  N          5.9130    7.8510   25.4650 N.am  255  THR255     -0.1952
     12  CA         5.6360    7.7680   26.8950 C.3   255  THR255      0.1897
     13  C          6.4730    8.6540   27.8360 C.2   255  THR255      0.2313
     14  O          5.9610    9.0890   28.8620 O.2   255  THR255     -0.2863
     15  CB         5.4830    6.3010   27.4340 C.3   255  THR255      0.1794
     16  OG1        6.6310    5.8880   28.1550 O.3   255  THR255     -0.2208
     17  CG2        5.1750    5.3090   26.3760 C.3   255  THR255      0.0378
     18  N          6.5790   14.2370   22.1170 N.3   294  GLU294     -0.1182
     19  CA         5.3190   13.7520   21.5450 C.3   294  GLU294      0.1915
     20  C          4.2080   14.2240   22.4560 C.2   294  GLU294      0.2634
     21  O          3.8670   13.4760   23.3660 O.2   294  GLU294     -0.2714
     22  CB         5.2650   12.1890   21.4230 C.2   294  GLU294      0.0085
     23  CG         6.0560   11.5600   20.2510 C.2   294  GLU294      0.0835
     24  CD         5.8500   10.0220   20.0160 C.2   294  GLU294      0.3877
     25  OE1        4.7040    9.4560   19.8830 O.co2 294  GLU294     -0.2406
     26  OE2        6.9030    9.3610   19.9080 O.co2 294  GLU294     -0.2406
     27  N          3.6320   15.4430   22.2580 N.am  295  PHE295     -0.1973
     28  CA         3.8350   16.4090   21.1410 C.3   295  PHE295      0.1639
     29  C          3.5820   17.8640   21.6480 C.2   295  PHE295      0.2290
     30  O          2.6900   18.0590   22.4680 O.2   295  PHE295     -0.2864
     31  CB         2.7950   16.1960   19.9950 C.3   295  PHE295      0.0560
     32  CG         2.6250   14.7230   19.5280 C.ar  295  PHE295     -0.0200
     33  CD1        3.3380   14.2380   18.4370 C.ar  295  PHE295     -0.0042
     34  CD2        1.6820   13.8530   20.1620 C.ar  295  PHE295     -0.0042
     35  CE1        3.1970   12.9220   18.0410 C.ar  295  PHE295     -0.0003
     36  CE2        1.5130   12.4980   19.7550 C.ar  295  PHE295     -0.0003
     37  CZ         2.2670   12.0430   18.6970 C.ar  295  PHE295     -0.0000
     38  N         -2.3610   16.3740   22.7280 N.3   299  GLY299     -0.1210
     39  CA        -2.9380   15.2490   22.0220 C.3   299  GLY299      0.1956
     40  C         -2.0230   14.0360   22.0250 C.2   299  GLY299      0.2612
     41  O         -2.1570   13.1820   21.1510 O.2   299  GLY299     -0.2717
     42  N         -1.1130   13.9370   23.0050 N.am  300  GLY300     -0.1942
     43  CA        -0.2850   12.7310   23.2060 C.3   300  GLY300      0.2014
     44  C         -0.6840   11.9180   24.4350 C.2   300  GLY300      0.2638
     45  O         -1.8580   12.0040   24.8960 O.2   300  GLY300     -0.2714
     46  N          0.2620   11.1280   24.9670 N.am  301  ALA301     -0.1977
     47  CA         0.0080   10.3050   26.1690 C.3   301  ALA301      0.1597
     48  C         -0.5110   11.1100   27.3680 C.2   301  ALA301      0.2287
     49  O         -1.2800   10.5800   28.1730 O.2   301  ALA301     -0.2864
     50  CB         1.2040    9.5330   26.5900 C.3   301  ALA301      0.0319
     51  N         -2.8600   13.3760   28.7900 N.3   303  ALA303     -0.1245
     52  CA        -4.1700   13.8860   28.4420 C.3   303  ALA303      0.1562
     53  C         -4.4300   15.2960   29.0210 C.2   303  ALA303      0.2260
     54  O         -5.1340   16.0820   28.3890 O.2   303  ALA303     -0.2867
     55  CB        -5.2850   12.8810   28.8820 C.3   303  ALA303      0.0290
     56  N         -1.0120   18.2240   14.6730 N.3   349  LYS349     -0.1245
     57  CA         0.3080   18.3030   15.3390 C.3   349  LYS349      0.1561
     58  C          1.1560   19.3680   14.6680 C.2   349  LYS349      0.2260
     59  O          1.7060   20.2450   15.3670 O.2   349  LYS349     -0.2867
     60  CB         1.0700   16.9540   15.3240 C.3   349  LYS349      0.0271
     61  CG         0.2310   15.8040   15.8710 C.3   349  LYS349      0.0035
     62  CD        -0.2900   16.1560   17.2360 C.3   349  LYS349      0.0206
     63  CE        -1.0330   15.0090   17.9670 C.3   349  LYS349      0.1093
     64  NZ        -2.3150   14.4900   17.3190 N.3   349  LYS349     -0.1314
     65  N          1.7650    5.1280   12.6430 N.3   371  ASP371     -0.1239
     66  CA         0.7150    5.2750   13.6360 C.3   371  ASP371      0.1674
     67  C         -0.4360    6.1630   13.1900 C.2   371  ASP371      0.2266
     68  O         -1.0330    6.8390   14.0120 O.2   371  ASP371     -0.2867
     69  CB         1.2700    5.8130   14.9690 C.3   371  ASP371      0.1410
     70  CG         2.3940    4.9700   15.5370 C.2   371  ASP371      0.3668
     71  OD1        2.5140    3.7310   15.2640 O.co2 371  ASP371     -0.2456
     72  OD2        3.1750    5.5750   16.3050 O.co2 371  ASP371     -0.2456
     73  N         -5.9390    1.5100   19.3480 N.3   376  TRP376     -0.1227
     74  CA        -6.5280    2.3770   20.3270 C.3   376  TRP376      0.1737
     75  C         -8.0420    2.7020   20.0870 C.2   376  TRP376      0.2595
     76  O         -8.7130    3.1710   21.0000 O.2   376  TRP376     -0.2718
     77  CB        -5.7490    3.6840   20.4610 C.3   376  TRP376      0.0564
     78  CG        -5.5730    4.4470   19.1720 C.ar  376  TRP376      0.0003
     79  CD1       -6.4460    5.3460   18.5780 C.ar  376  TRP376      0.0946
     80  CD2       -4.4270    4.3810   18.3280 C.ar  376  TRP376      0.0152
     81  NE1       -5.8800    5.8610   17.4240 N.ar  376  TRP376     -0.2442
     82  CE2       -4.6500    5.2740   17.2430 C.ar  376  TRP376      0.0810
     83  CE3       -3.2100    3.6620   18.3940 C.ar  376  TRP376      0.0012
     84  CZ2       -3.6920    5.4680   16.2350 C.ar  376  TRP376      0.0191
     85  CZ3       -2.2780    3.8460   17.3980 C.ar  376  TRP376      0.0001
     86  CH2       -2.5190    4.7390   16.3280 C.ar  376  TRP376      0.0015
     87  N         -8.5580    2.4950   18.8770 N.am  377  ASN377     -0.1974
     88  CA       -10.0100    2.4910   18.6950 C.3   377  ASN377      0.1688
     89  C        -10.3820    1.4090   17.6930 C.2   377  ASN377      0.2292
     90  O         -9.5050    0.6410   17.2460 O.2   377  ASN377     -0.2864
     91  CB       -10.5040    3.8970   18.2930 C.3   377  ASN377      0.1181
     92  CG        -9.8930    4.3660   17.0020 C.2   377  ASN377      0.2629
     93  OD1       -9.5840    3.5430   16.1230 O.2   377  ASN377     -0.2716
     94  ND2       -9.7260    5.6840   16.8560 N.am  377  ASN377     -0.0877
     95  N          0.1680   -2.5450   13.0740 N.3   442  ARG442     -0.1245
     96  CA        -0.8320   -2.4270   14.0910 C.3   442  ARG442      0.1563
     97  C         -2.0080   -3.2230   13.5670 C.2   442  ARG442      0.2260
     98  O         -2.0890   -3.4960   12.3580 O.2   442  ARG442     -0.2867
     99  CB        -1.2310   -0.9600   14.3220 C.3   442  ARG442      0.0307
    100  CG        -0.0860   -0.1770   14.9720 C.3   442  ARG442      0.0489
    101  CD        -0.5170    1.2610   15.3740 C.3   442  ARG442      0.2205
    102  NE         0.5630    1.9110   16.1200 N.pl3 442  ARG442     -0.0865
    103  CZ         0.8150    1.7760   17.4190 C.cat 442  ARG442      0.5346
    104  NH1        0.0410    1.0210   18.2060 N.pl3 442  ARG442      0.1354
    105  NH2        1.8480    2.4450   17.9430 N.pl3 442  ARG442      0.1354
    106  N         -8.3790   -4.6930   20.0160 N.3   466  LYS466     -0.1245
    107  CA        -6.9890   -4.7250   19.5730 C.3   466  LYS466      0.1561
    108  C         -6.6180   -6.1200   19.2180 C.2   466  LYS466      0.2260
    109  O         -7.0920   -7.0570   19.8530 O.2   466  LYS466     -0.2867
    110  CB        -6.0340   -4.2990   20.7250 C.3   466  LYS466      0.0271
    111  CG        -6.2290   -2.9020   21.2390 C.3   466  LYS466      0.0035
    112  CD        -5.2550   -2.5640   22.4190 C.3   466  LYS466      0.0206
    113  CE        -5.4430   -1.0970   22.8020 C.3   466  LYS466      0.1093
    114  NZ        -4.6990   -0.6580   24.0050 N.3   466  LYS466     -0.1314
@<TRIPOS>BOND
     1    98    97    2
     2    65    66    1
     3    95    96    1
     4    67    66    1
     5    67    68    2
     6    97    96    1
     7    66    69    1
     8    96    99    1
     9    99   100    1
    10    58    57    1
    11    58    59    2
    12    56    57    1
    13    69    70    1
    14   100   101    1
    15    71    70   ar
    16    60    57    1
    17    60    61    1
    18   101   102    1
    19    70    72   ar
    20    61    62    1
    21   102   103    2
    22    93    92    2
    23    84    86   ar
    24    84    82   ar
    25    86    85   ar
    26    94    92   am
    27    92    91    1
    28    62    63    1
    29    82    81   ar
    30    82    80   ar
    31    90    89    2
    32    64    63    1
    33    85    83   ar
    34   103   105    1
    35   103   104    1
    36    81    79   ar
    37    89    88    1
    38    35    33   ar
    39    35    37   ar
    40    91    88    1
    41    80    83   ar
    42    80    78   ar
    43    33    32   ar
    44    79    78   ar
    45    88    87    1
    46    37    36   ar
    47    87    75   am
    48    78    77    1
    49   108   107    1
    50   108   109    2
    51    73    74    1
    52    32    31    1
    53    32    34   ar
    54   107   106    1
    55   107   110    1
    56    36    34   ar
    57    25    24   ar
    58    26    24   ar
    59    31    28    1
    60    24    23    1
    61    75    74    1
    62    75    76    2
    63    23    22    2
    64    74    77    1
    65   110   111    1
    66    28    29    1
    67    28    27    1
    68    41    40    2
    69   111   112    1
    70    22    19    1
    71    19    18    1
    72    19    20    1
    73    29    30    2
    74    39    40    1
    75    39    38    1
    76    40    42   am
    77    27    20   am
    78   112   113    1
    79    20    21    2
    80   113   114    1
    81     7     8    1
    82    42    43    1
    83    43    44    1
    84     8     9    1
    85    44    45    2
    86    44    46   am
    87     9    10    2
    88     9    11   am
    89    46    47    1
    90    11    12    1
    91    47    50    1
    92    47    48    1
    93    17    15    1
    94    12    15    1
    95    12    13    1
    96    48    49    2
    97    15    16    1
    98    13    14    2
    99    54    53    2
   100    52    51    1
   101    52    55    1
   102    52    53    1
   103     4     3    2
   104     3     2    1
   105     5     2    1
   106     5     6    1
   107     2     1    1
