@<TRIPOS>MOLECULE
tmp/3artA01.pdb
 150 146 0 0 0
SMALL
GASTEIGER

@<TRIPOS>ATOM
      1  N         21.3910   -0.5760   41.6140 N.3    27  THR27      -0.1218
      2  CA        20.5330    0.2460   40.7860 C.3    27  THR27       0.1862
      3  C         20.1380    1.3840   41.6780 C.2    27  THR27       0.2287
      4  O         19.4480    1.1780   42.7090 O.2    27  THR27      -0.2866
      5  CB        19.2360   -0.4770   40.3130 C.3    27  THR27       0.1770
      6  OG1       19.5880   -1.7150   39.7430 O.3    27  THR27      -0.2211
      7  CG2       18.5340    0.3400   39.1920 C.3    27  THR27       0.0375
      8  N         16.6710    0.1610   23.8450 N.3   146  GLU146     -0.1231
      9  CA        17.4340   -0.2810   24.9950 C.3   146  GLU146      0.1699
     10  C         16.8620   -1.5760   25.5810 C.2   146  GLU146      0.2592
     11  O         17.6080   -2.4490   25.9470 O.2   146  GLU146     -0.2718
     12  CB        17.3920    0.8430   26.0520 C.3   146  GLU146      0.0402
     13  CG        18.0470    0.4840   27.4020 C.3   146  GLU146      0.1161
     14  CD        18.4630    1.7190   28.1490 C.2   146  GLU146      0.3649
     15  OE1       19.5910    2.2010   27.9160 O.co2 146  GLU146     -0.2457
     16  OE2       17.6370    2.2690   28.8970 O.co2 146  GLU146     -0.2457
     17  N         15.5360   -1.6880   25.6340 N.am  147  TRP147     -0.1976
     18  CA        14.8680   -2.8190   26.2050 C.3   147  TRP147      0.1640
     19  C         14.8220   -4.0530   25.2530 C.2   147  TRP147      0.2290
     20  O         14.2840   -5.0950   25.6150 O.2   147  TRP147     -0.2864
     21  CB        13.4620   -2.3830   26.6730 C.3   147  TRP147      0.0576
     22  CG        12.6040   -1.8210   25.5660 C.ar  147  TRP147      0.0006
     23  CD1       11.8010   -2.5290   24.7280 C.ar  147  TRP147      0.0946
     24  CD2       12.4600   -0.4480   25.1700 C.ar  147  TRP147      0.0152
     25  NE1       11.1280   -1.7080   23.8880 N.ar  147  TRP147     -0.2442
     26  CE2       11.5410   -0.4210   24.0940 C.ar  147  TRP147      0.0810
     27  CE3       13.0040    0.7530   25.6220 C.ar  147  TRP147      0.0012
     28  CZ2       11.1290    0.7810   23.4520 C.ar  147  TRP147      0.0191
     29  CZ3       12.5880    1.9800   24.9710 C.ar  147  TRP147      0.0001
     30  CH2       11.6640    1.9640   23.9070 C.ar  147  TRP147      0.0015
     31  N         16.1150   -7.9400   26.1700 N.3   150  TYR150     -0.1241
     32  CA        15.3700   -8.8760   27.0240 C.3   150  TYR150      0.1605
     33  C         14.5940   -9.8950   26.1880 C.2   150  TYR150      0.2264
     34  O         15.1890  -10.6340   25.4010 O.2   150  TYR150     -0.2867
     35  CB        14.4740   -8.0860   27.9750 C.3   150  TYR150      0.0534
     36  CG        15.2760   -7.1720   28.8980 C.ar  150  TYR150     -0.0201
     37  CD1       16.2040   -7.7140   29.8210 C.ar  150  TYR150     -0.0009
     38  CD2       15.1290   -5.7950   28.8440 C.ar  150  TYR150     -0.0009
     39  CE1       16.9370   -6.9050   30.6600 C.ar  150  TYR150      0.0417
     40  CE2       15.8860   -4.9610   29.6620 C.ar  150  TYR150      0.0417
     41  CZ        16.7810   -5.5210   30.5800 C.ar  150  TYR150      0.1957
     42  OH        17.5120   -4.7130   31.4170 O.3   150  TYR150     -0.2866
     43  N         12.9460   -9.7330   23.4190 N.3   152  ARG152     -0.1245
     44  CA        13.1730   -9.6270   21.9670 C.3   152  ARG152      0.1563
     45  C         14.5740  -10.1080   21.5650 C.2   152  ARG152      0.2260
     46  O         14.8370  -10.3850   20.4050 O.2   152  ARG152     -0.2867
     47  CB        12.9630   -8.1690   21.4750 C.3   152  ARG152      0.0307
     48  CG        11.5720   -7.5910   21.7240 C.3   152  ARG152      0.0489
     49  CD        11.6540   -6.0870   21.6950 C.3   152  ARG152      0.2205
     50  NE        10.3510   -5.4420   21.6750 N.pl3 152  ARG152     -0.0865
     51  CZ         9.5950   -5.1810   22.7360 C.cat 152  ARG152      0.5346
     52  NH1        9.9730   -5.5480   23.9570 N.pl3 152  ARG152      0.1354
     53  NH2        8.4260   -4.5680   22.5540 N.pl3 152  ARG152      0.1354
     54  N          1.6920    3.2730   31.9490 N.3   184  VAL184     -0.1245
     55  CA         2.1270    2.1800   31.0930 C.3   184  VAL184      0.1561
     56  C          2.2890    0.8320   31.9100 C.2   184  VAL184      0.2260
     57  O          2.2760   -0.2850   31.3360 O.2   184  VAL184     -0.2867
     58  CB         3.3990    2.6760   30.2930 C.3   184  VAL184      0.0252
     59  CG1        4.6420    1.8850   30.5620 C.3   184  VAL184      0.0019
     60  CG2        3.0730    2.8890   28.7940 C.3   184  VAL184      0.0019
     61  N          7.7200   -2.1590   35.1170 N.3   187  ASN187     -0.1225
     62  CA         8.7520   -1.6190   35.9820 C.3   187  ASN187      0.1785
     63  C          9.2610   -0.2750   35.4740 C.2   187  ASN187      0.2597
     64  O         10.0410    0.3910   36.1500 O.2   187  ASN187     -0.2718
     65  CB         9.8900   -2.6220   36.1290 C.3   187  ASN187      0.1169
     66  CG        10.9280   -2.1530   37.1240 C.2   187  ASN187      0.2627
     67  OD1       10.6450   -2.0150   38.3060 O.2   187  ASN187     -0.2716
     68  ND2       12.1380   -1.8780   36.6400 N.am  187  ASN187     -0.0877
     69  N          8.8160    0.1390   34.2900 N.am  188  SER188     -0.1952
     70  CA         9.3320    1.4000   33.6880 C.3   188  SER188      0.1924
     71  C          9.3280    2.6610   34.5890 C.2   188  SER188      0.2314
     72  O         10.2750    3.4170   34.5930 O.2   188  SER188     -0.2863
     73  CB         8.6300    1.6760   32.3760 C.3   188  SER188      0.2116
     74  OG         9.1170    2.8820   31.8860 O.3   188  SER188     -0.2180
     75  N         11.8390    2.1030   37.8370 N.3   191  ALA191     -0.1245
     76  CA        13.1970    2.2740   37.3090 C.3   191  ALA191      0.1562
     77  C         13.5320    3.7570   37.1810 C.2   191  ALA191      0.2260
     78  O         14.6180    4.1650   37.5870 O.2   191  ALA191     -0.2867
     79  CB        13.3860    1.5490   35.9190 C.3   191  ALA191      0.0290
     80  N         17.7460    5.3350   31.6090 N.3   207  HIS207     -0.1226
     81  CA        16.5810    4.6210   32.1400 C.3   207  HIS207      0.1752
     82  C         16.9150    3.2840   32.8200 C.2   207  HIS207      0.2596
     83  O         16.4580    3.0090   33.9380 O.2   207  HIS207     -0.2718
     84  CB        15.5140    4.4020   31.0570 C.3   207  HIS207      0.0759
     85  CG        14.1030    4.3020   31.5990 C.ar  207  HIS207      0.0818
     86  ND1       12.9730    4.3410   30.7900 N.ar  207  HIS207     -0.2268
     87  CD2       13.6460    4.1810   32.8700 C.ar  207  HIS207      0.1154
     88  CE1       11.8900    4.2580   31.5490 C.ar  207  HIS207      0.1986
     89  NE2       12.2740    4.1630   32.8120 N.ar  207  HIS207     -0.2212
     90  N         17.7170    2.4710   32.1600 N.am  208  ASP208     -0.1974
     91  CA        17.9610    1.0750   32.5400 C.3   208  ASP208      0.1709
     92  C         19.4810    0.8740   32.4980 C.2   208  ASP208      0.2293
     93  O         20.0630    0.5260   31.4420 O.2   208  ASP208     -0.2864
     94  CB        17.2540    0.1600   31.5190 C.3   208  ASP208      0.1436
     95  CG        17.4470   -1.3230   31.8190 C.2   208  ASP208      0.3671
     96  OD1       18.2670   -1.6770   32.7100 O.co2 208  ASP208     -0.2456
     97  OD2       16.7700   -2.1500   31.1520 O.co2 208  ASP208     -0.2456
     98  N         21.3560   -1.3490   33.6860 N.3   210  TRP210     -0.1241
     99  CA        21.6980   -2.7060   33.4380 C.3   210  TRP210      0.1605
    100  C         21.8290   -2.9500   31.9090 C.2   210  TRP210      0.2264
    101  O         22.9030   -3.3680   31.4440 O.2   210  TRP210     -0.2867
    102  CB        20.6870   -3.6270   34.1200 C.3   210  TRP210      0.0550
    103  CG        20.9210   -5.0570   33.7680 C.ar  210  TRP210      0.0003
    104  CD1       20.1910   -5.8140   32.8590 C.ar  210  TRP210      0.0946
    105  CD2       21.9190   -5.9300   34.3240 C.ar  210  TRP210      0.0152
    106  NE1       20.6950   -7.0850   32.8190 N.ar  210  TRP210     -0.2442
    107  CE2       21.7540   -7.1960   33.6950 C.ar  210  TRP210      0.0810
    108  CE3       22.9190   -5.7740   35.3050 C.ar  210  TRP210      0.0012
    109  CZ2       22.6060   -8.2900   33.9560 C.ar  210  TRP210      0.0191
    110  CZ3       23.7680   -6.8760   35.6000 C.ar  210  TRP210      0.0001
    111  CH2       23.6120   -8.1150   34.9200 C.ar  210  TRP210      0.0015
    112  N         25.8810   -2.1470   32.3880 N.3   214  GLN214     -0.1245
    113  CA        26.2020   -3.2600   33.3610 C.3   214  GLN214      0.1566
    114  C         26.1780   -4.6710   32.7750 C.2   214  GLN214      0.2260
    115  O         27.0320   -5.4950   33.1190 O.2   214  GLN214     -0.2867
    116  CB        25.2920   -3.2430   34.6200 C.3   214  GLN214      0.0367
    117  CG        25.3330   -1.9040   35.3950 C.3   214  GLN214      0.0905
    118  CD        24.2930   -1.8630   36.5430 C.2   214  GLN214      0.2608
    119  OE1       23.2270   -2.4790   36.4640 O.2   214  GLN214     -0.2717
    120  NE2       24.6250   -1.1470   37.6010 N.am  214  GLN214     -0.0878
    121  N          5.9130    7.8510   25.4650 N.3   255  THR255     -0.1218
    122  CA         5.6360    7.7680   26.8950 C.3   255  THR255      0.1862
    123  C          6.4730    8.6540   27.8360 C.2   255  THR255      0.2287
    124  O          5.9610    9.0890   28.8620 O.2   255  THR255     -0.2866
    125  CB         5.4830    6.3010   27.4340 C.3   255  THR255      0.1770
    126  OG1        6.6310    5.8880   28.1550 O.3   255  THR255     -0.2211
    127  CG2        5.1750    5.3090   26.3760 C.3   255  THR255      0.0375
    128  N          4.3070   -8.0410   21.2540 N.3   476  TRP476     -0.1227
    129  CA         4.8030   -7.6880   22.5980 C.3   476  TRP476      0.1737
    130  C          3.8080   -6.8670   23.3900 C.2   476  TRP476      0.2595
    131  O          3.9410   -6.7140   24.6080 O.2   476  TRP476     -0.2718
    132  CB         6.1830   -6.9990   22.5430 C.3   476  TRP476      0.0564
    133  CG         7.0930   -7.8230   21.7610 C.ar  476  TRP476      0.0003
    134  CD1        7.2870   -7.7570   20.4200 C.ar  476  TRP476      0.0946
    135  CD2        7.9010   -8.9030   22.2370 C.ar  476  TRP476      0.0152
    136  NE1        8.1830   -8.7010   20.0290 N.ar  476  TRP476     -0.2442
    137  CE2        8.5630   -9.4360   21.1230 C.ar  476  TRP476      0.0810
    138  CE3        8.1380   -9.4660   23.5070 C.ar  476  TRP476      0.0012
    139  CZ2        9.4490  -10.5130   21.2220 C.ar  476  TRP476      0.0191
    140  CZ3        9.0320  -10.5210   23.6070 C.ar  476  TRP476      0.0001
    141  CH2        9.6650  -11.0400   22.4750 C.ar  476  TRP476      0.0015
    142  N          2.8050   -6.3360   22.6900 N.am  477  GLU477     -0.1979
    143  CA         1.7080   -5.6180   23.3380 C.3   477  GLU477      0.1602
    144  C          0.4520   -5.6450   22.4650 C.2   477  GLU477      0.2287
    145  O          0.5390   -5.7920   21.2670 O.2   477  GLU477     -0.2864
    146  CB         2.1220   -4.1980   23.7110 C.3   477  GLU477      0.0415
    147  CG         2.9280   -3.4950   22.6820 C.3   477  GLU477      0.1163
    148  CD         2.6610   -1.9880   22.6620 C.2   477  GLU477      0.3649
    149  OE1        3.5970   -1.2480   22.2590 O.co2 477  GLU477     -0.2457
    150  OE2        1.5290   -1.5540   23.0340 O.co2 477  GLU477     -0.2457
@<TRIPOS>BOND
     1   136   134   ar
     2   136   137   ar
     3    46    45    2
     4   134   133   ar
     5   137   139   ar
     6   137   135   ar
     7   139   141   ar
     8   128   129    1
     9   145   144    2
    10    47    48    1
    11    47    44    1
    12    45    44    1
    13    50    49    1
    14    50    51    2
    15    49    48    1
    16   133   135   ar
    17   133   132    1
    18    44    43    1
    19   135   138   ar
    20   149   148   ar
    21   144   143    1
    22   141   140   ar
    23   132   129    1
    24    53    51    1
    25   129   130    1
    26   148   147    1
    27   148   150   ar
    28   147   146    1
    29   142   143    1
    30   142   130   am
    31    51    52    1
    32   143   146    1
    33   130   131    2
    34    28    30   ar
    35    28    26   ar
    36   138   140   ar
    37     8     9    1
    38    25    26   ar
    39    25    23   ar
    40    30    29   ar
    41    26    24   ar
    42    23    22   ar
    43    29    27   ar
    44     9    10    1
    45     9    12    1
    46    24    22   ar
    47    24    27   ar
    48    19    20    2
    49    19    18    1
    50    34    33    2
    51   121   122    1
    52    22    21    1
    53    10    17   am
    54    10    11    2
    55    17    18    1
    56    12    13    1
    57    31    32    1
    58    33    32    1
    59    18    21    1
    60   127   125    1
    61   122   125    1
    62   122   123    1
    63    32    35    1
    64    13    14    1
    65   125   126    1
    66   123   124    2
    67    15    14   ar
    68    35    36    1
    69    14    16   ar
    70    60    58    1
    71    38    36   ar
    72    38    40   ar
    73    36    37   ar
    74    40    41   ar
    75    37    39   ar
    76    58    59    1
    77    58    55    1
    78    41    39   ar
    79    41    42    1
    80    86    88   ar
    81    86    85   ar
    82    84    85    1
    83    84    81    1
    84    55    56    1
    85    55    54    1
    86    97    95   ar
    87    57    56    2
    88    93    92    2
    89   101   100    2
    90    94    95    1
    91    94    91    1
    92    88    89   ar
    93    85    87   ar
    94    80    81    1
    95    95    96   ar
    96    74    73    1
    97   100    99    1
    98    81    82    1
    99    90    91    1
   100    90    82   am
   101    73    70    1
   102   112   113    1
   103    92    91    1
   104   114   115    2
   105   114   113    1
   106    89    87   ar
   107   106   104   ar
   108   106   107   ar
   109    82    83    2
   110   104   103   ar
   111   113   116    1
   112    99    98    1
   113    99   102    1
   114    70    69    1
   115    70    71    1
   116   107   109   ar
   117   107   105   ar
   118   103   102    1
   119   103   105   ar
   120   109   111   ar
   121    69    63   am
   122   105   108   ar
   123    71    72    2
   124   116   117    1
   125   111   110   ar
   126    61    62    1
   127   108   110   ar
   128   117   118    1
   129    63    62    1
   130    63    64    2
   131    79    76    1
   132    62    65    1
   133    65    66    1
   134   119   118    2
   135   118   120   am
   136    68    66   am
   137    66    67    2
   138    77    76    1
   139    77    78    2
   140    76    75    1
   141     7     5    1
   142     6     5    1
   143     5     2    1
   144     2     1    1
   145     2     3    1
   146     3     4    2
