@<TRIPOS>MOLECULE
tmp/3aruA01.pdb
 88 83 0 0 0
SMALL
GASTEIGER

@<TRIPOS>ATOM
      1  N          2.6420    9.7590   32.4940 N.3   180  SER180     -0.1217
      2  CA         2.4210    8.8580   31.3170 C.3   180  SER180      0.1889
      3  C          3.1840    7.5380   31.3730 C.2   180  SER180      0.2288
      4  O          2.7060    6.5230   30.8380 O.2   180  SER180     -0.2866
      5  CB         2.7430    9.5810   30.0120 C.3   180  SER180      0.2089
      6  OG         1.7970   10.6540   29.8830 O.3   180  SER180     -0.2183
      7  N          1.7090    3.2230   31.8530 N.3   184  VAL184     -0.1245
      8  CA         2.0840    2.0620   31.0800 C.3   184  VAL184      0.1561
      9  C          2.2090    0.7570   31.8730 C.2   184  VAL184      0.2260
     10  O          2.3060   -0.3570   31.2760 O.2   184  VAL184     -0.2867
     11  CB         3.4480    2.4390   30.3600 C.3   184  VAL184      0.0252
     12  CG1        4.4780    1.4090   30.4500 C.3   184  VAL184      0.0019
     13  CG2        3.1680    3.0060   28.9550 C.3   184  VAL184      0.0019
     14  N          6.9450    8.5700   23.0460 N.3   254  GLY254     -0.1210
     15  CA         5.5290    8.7040   23.3520 C.3   254  GLY254      0.1956
     16  C          5.2280    8.7090   24.8670 C.2   254  GLY254      0.2612
     17  O          4.4540    9.5300   25.3620 O.2   254  GLY254     -0.2717
     18  N          5.8560    7.8330   25.6020 N.am  255  THR255     -0.1952
     19  CA         5.4820    7.8090   27.0070 C.3   255  THR255      0.1897
     20  C          6.3440    8.6630   27.9090 C.2   255  THR255      0.2313
     21  O          5.9390    8.9440   29.0510 O.2   255  THR255     -0.2863
     22  CB         5.3300    6.4030   27.5390 C.3   255  THR255      0.1794
     23  OG1        6.5790    5.9410   27.9580 O.3   255  THR255     -0.2208
     24  CG2        4.8470    5.4540   26.5000 C.3   255  THR255      0.0378
     25  N          6.4450   14.2770   22.0560 N.3   294  GLU294     -0.1231
     26  CA         5.1950   13.7840   21.4910 C.3   294  GLU294      0.1699
     27  C          4.0870   14.2680   22.4010 C.2   294  GLU294      0.2592
     28  O          3.7160   13.5370   23.3000 O.2   294  GLU294     -0.2718
     29  CB         5.2120   12.2320   21.4170 C.3   294  GLU294      0.0402
     30  CG         6.0780   11.7420   20.2420 C.3   294  GLU294      0.1161
     31  CD         6.0540   10.2410   20.0560 C.2   294  GLU294      0.3649
     32  OE1        4.9610    9.6210   20.1320 O.co2 294  GLU294     -0.2457
     33  OE2        7.1390    9.6960   19.8180 O.co2 294  GLU294     -0.2457
     34  N          3.5270   15.5110   22.1970 N.am  295  PHE295     -0.1976
     35  CA         3.7380   16.4120   21.0570 C.3   295  PHE295      0.1639
     36  C          3.5690   17.8470   21.5580 C.2   295  PHE295      0.2290
     37  O          2.6700   18.1080   22.3830 O.2   295  PHE295     -0.2864
     38  CB         2.6660   16.2190   19.9100 C.3   295  PHE295      0.0560
     39  CG         2.5170   14.7880   19.4520 C.ar  295  PHE295     -0.0200
     40  CD1        3.2680   14.2820   18.3440 C.ar  295  PHE295     -0.0042
     41  CD2        1.5940   13.9310   20.1030 C.ar  295  PHE295     -0.0042
     42  CE1        3.1030   12.9380   17.9300 C.ar  295  PHE295     -0.0003
     43  CE2        1.4280   12.5670   19.6590 C.ar  295  PHE295     -0.0003
     44  CZ         2.1780   12.0850   18.5930 C.ar  295  PHE295     -0.0000
     45  N         -2.3020   16.3220   22.5730 N.3   299  GLY299     -0.1210
     46  CA        -2.7630   15.1940   21.7850 C.3   299  GLY299      0.1956
     47  C         -1.8630   13.9880   21.8800 C.2   299  GLY299      0.2612
     48  O         -2.0060   13.0450   21.0830 O.2   299  GLY299     -0.2717
     49  N         -0.9600   13.9120   22.8760 N.am  300  GLY300     -0.1942
     50  CA        -0.2410   12.6850   23.0450 C.3   300  GLY300      0.2014
     51  C         -0.6610   11.8840   24.2730 C.2   300  GLY300      0.2638
     52  O         -1.8430   11.9640   24.7230 O.2   300  GLY300     -0.2714
     53  N          0.3080   11.2030   24.8960 N.am  301  ALA301     -0.1977
     54  CA        -0.0230   10.3810   26.0600 C.3   301  ALA301      0.1597
     55  C         -0.5500   11.1170   27.2640 C.2   301  ALA301      0.2287
     56  O         -1.3470   10.5820   28.0290 O.2   301  ALA301     -0.2864
     57  CB         1.1260    9.5540   26.4600 C.3   301  ALA301      0.0319
     58  N          1.7160    5.1790   12.5820 N.3   371  ASP371     -0.1239
     59  CA         0.7360    5.3430   13.6800 C.3   371  ASP371      0.1674
     60  C         -0.4210    6.2210   13.2600 C.2   371  ASP371      0.2266
     61  O         -1.0030    6.8940   14.0920 O.2   371  ASP371     -0.2867
     62  CB         1.4160    5.9170   14.9330 C.3   371  ASP371      0.1410
     63  CG         2.5040    5.0110   15.4590 C.2   371  ASP371      0.3668
     64  OD1        2.5490    3.8000   15.1230 O.co2 371  ASP371     -0.2456
     65  OD2        3.3440    5.5230   16.2280 O.co2 371  ASP371     -0.2456
     66  N         -5.9130    1.7420   19.3800 N.3   376  TRP376     -0.1241
     67  CA        -6.5120    2.5990   20.4220 C.3   376  TRP376      0.1605
     68  C         -7.9990    2.9210   20.1640 C.2   376  TRP376      0.2264
     69  O         -8.6550    3.4730   21.0180 O.2   376  TRP376     -0.2867
     70  CB        -5.7420    3.9240   20.5200 C.3   376  TRP376      0.0550
     71  CG        -5.4950    4.6030   19.1760 C.ar  376  TRP376      0.0003
     72  CD1       -6.3400    5.4610   18.4840 C.ar  376  TRP376      0.0946
     73  CD2       -4.3220    4.4710   18.3790 C.ar  376  TRP376      0.0152
     74  NE1       -5.7050    5.9040   17.3310 N.ar  376  TRP376     -0.2442
     75  CE2       -4.4850    5.2880   17.2380 C.ar  376  TRP376      0.0810
     76  CE3       -3.1230    3.7380   18.5290 C.ar  376  TRP376      0.0012
     77  CZ2       -3.4880    5.4060   16.2520 C.ar  376  TRP376      0.0191
     78  CZ3       -2.1470    3.8580   17.5330 C.ar  376  TRP376      0.0001
     79  CH2       -2.3250    4.6950   16.4390 C.ar  376  TRP376      0.0015
     80  N          2.8160   -6.1150   22.6910 N.3   477  GLU477     -0.1245
     81  CA         1.7740   -5.3720   23.4010 C.3   477  GLU477      0.1567
     82  C          0.5540   -5.4890   22.4920 C.2   477  GLU477      0.2260
     83  O          0.7060   -5.6010   21.2490 O.2   477  GLU477     -0.2867
     84  CB         2.1570   -3.9130   23.5830 C.3   477  GLU477      0.0388
     85  CG         2.3540   -3.1830   22.2920 C.3   477  GLU477      0.1160
     86  CD         2.5350   -1.6420   22.4280 C.2   477  GLU477      0.3649
     87  OE1        3.5720   -1.1120   21.9350 O.co2 477  GLU477     -0.2457
     88  OE2        1.6230   -0.9630   22.9630 O.co2 477  GLU477     -0.2457
@<TRIPOS>BOND
     1    58    59    1
     2    60    59    1
     3    60    61    2
     4    59    62    1
     5    62    63    1
     6    64    63   ar
     7    63    65   ar
     8    77    79   ar
     9    77    75   ar
    10    79    78   ar
    11    75    74   ar
    12    75    73   ar
    13    74    72   ar
    14    78    76   ar
    15    42    40   ar
    16    42    44   ar
    17    40    39   ar
    18    73    76   ar
    19    73    71   ar
    20    72    71   ar
    21    44    43   ar
    22    71    70    1
    23    66    67    1
    24    39    38    1
    25    39    41   ar
    26    43    41   ar
    27    33    31   ar
    28    38    35    1
    29    31    32   ar
    30    31    30    1
    31    68    67    1
    32    68    69    2
    33    30    29    1
    34    67    70    1
    35    35    36    1
    36    35    34    1
    37    48    47    2
    38    83    82    2
    39    29    26    1
    40    26    25    1
    41    26    27    1
    42    36    37    2
    43    46    47    1
    44    46    45    1
    45    47    49   am
    46    87    86   ar
    47    34    27   am
    48    85    86    1
    49    85    84    1
    50    27    28    2
    51    86    88   ar
    52    82    81    1
    53    80    81    1
    54    49    50    1
    55    50    51    1
    56    14    15    1
    57    15    16    1
    58    81    84    1
    59    51    52    2
    60    51    53   am
    61    16    17    2
    62    16    18   am
    63    53    54    1
    64    18    19    1
    65    54    57    1
    66    54    55    1
    67    24    22    1
    68    19    22    1
    69    19    20    1
    70    55    56    2
    71    22    23    1
    72    20    21    2
    73    13    11    1
    74     6     5    1
    75     5     2    1
    76    11    12    1
    77    11     8    1
    78     4     3    2
    79     8     7    1
    80     8     9    1
    81    10     9    2
    82     2     3    1
    83     2     1    1
