@<TRIPOS>MOLECULE
tmp/3arvA01.pdb
 128 124 0 0 0
SMALL
GASTEIGER

@<TRIPOS>ATOM
      1  N          2.6430   -3.2540   31.1060 N.3   147  TRP147     -0.1241
      2  CA         3.3640   -2.1610   31.7790 C.3   147  TRP147      0.1605
      3  C          3.3120   -0.8840   31.0090 C.2   147  TRP147      0.2264
      4  O          3.9130    0.1400   31.4650 O.2   147  TRP147     -0.2867
      5  CB         4.8440   -2.5540   31.9820 C.3   147  TRP147      0.0550
      6  CG         5.5670   -2.9540   30.7660 C.ar  147  TRP147      0.0003
      7  CD1        6.3010   -2.1490   29.9830 C.ar  147  TRP147      0.0946
      8  CD2        5.6270   -4.2590   30.1280 C.ar  147  TRP147      0.0152
      9  NE1        6.8120   -2.8080   28.8360 N.ar  147  TRP147     -0.2442
     10  CE2        6.4390   -4.1220   28.9810 C.ar  147  TRP147      0.0810
     11  CE3        5.1220   -5.5170   30.4640 C.ar  147  TRP147      0.0012
     12  CZ2        6.7180   -5.1790   28.0960 C.ar  147  TRP147      0.0191
     13  CZ3        5.3770   -6.5830   29.5900 C.ar  147  TRP147      0.0001
     14  CH2        6.1810   -6.4160   28.4310 C.ar  147  TRP147      0.0015
     15  N          2.2810    2.7040   32.6160 N.3   150  TYR150     -0.1241
     16  CA         3.1540    3.5090   33.5360 C.3   150  TYR150      0.1605
     17  C          3.7750    4.6520   32.7630 C.2   150  TYR150      0.2264
     18  O          3.0440    5.5330   32.2170 O.2   150  TYR150     -0.2867
     19  CB         4.0540    2.5400   34.3130 C.3   150  TYR150      0.0534
     20  CG         3.3730    1.4990   35.1490 C.ar  150  TYR150     -0.0201
     21  CD1        2.5810    1.8980   36.2390 C.ar  150  TYR150     -0.0009
     22  CD2        3.4330    0.1730   34.8180 C.ar  150  TYR150     -0.0009
     23  CE1        1.9000    0.9270   37.0090 C.ar  150  TYR150      0.0417
     24  CE2        2.8450   -0.7980   35.6090 C.ar  150  TYR150      0.0417
     25  CZ         2.0060   -0.4120   36.6580 C.ar  150  TYR150      0.1957
     26  OH         1.4170   -1.4000   37.4390 O.3   150  TYR150     -0.2866
     27  N          4.9980    4.8830   29.8770 N.3   152  ARG152     -0.1245
     28  CA         4.5740    5.0590   28.4650 C.3   152  ARG152      0.1563
     29  C          3.1460    5.6480   28.3160 C.2   152  ARG152      0.2260
     30  O          2.7700    6.1220   27.2630 O.2   152  ARG152     -0.2867
     31  CB         4.6600    3.6710   27.7780 C.3   152  ARG152      0.0307
     32  CG         6.0710    3.2410   27.5250 C.3   152  ARG152      0.0489
     33  CD         6.0900    1.7190   27.2040 C.3   152  ARG152      0.2205
     34  NE         7.4860    1.2460   26.9280 N.pl3 152  ARG152     -0.0865
     35  CZ         8.3030    0.8660   27.9260 C.cat 152  ARG152      0.5346
     36  NH1        7.9640    0.9850   29.1670 N.pl3 152  ARG152      0.1354
     37  NH2        9.5130    0.3910   27.6160 N.pl3 152  ARG152      0.1354
     38  N          2.6660   -9.6040   29.0800 N.3   171  PHE171     -0.1241
     39  CA         2.8410  -11.0450   28.9080 C.3   171  PHE171      0.1605
     40  C          2.4950  -11.7120   30.2110 C.2   171  PHE171      0.2264
     41  O          2.7750  -11.1520   31.3140 O.2   171  PHE171     -0.2867
     42  CB         4.3140  -11.4220   28.6000 C.3   171  PHE171      0.0534
     43  CG         4.7880  -10.8870   27.2580 C.ar  171  PHE171     -0.0203
     44  CD1        4.6030  -11.6580   26.1100 C.ar  171  PHE171     -0.0042
     45  CD2        5.3420   -9.6320   27.1450 C.ar  171  PHE171     -0.0042
     46  CE1        4.9740  -11.2060   24.8480 C.ar  171  PHE171     -0.0003
     47  CE2        5.7050   -9.1400   25.8930 C.ar  171  PHE171     -0.0003
     48  CZ         5.5240   -9.9510   24.7210 C.ar  171  PHE171     -0.0000
     49  N         14.1970  -12.7170   34.0750 N.3   181  VAL181     -0.1245
     50  CA        13.3870  -11.5340   34.4140 C.3   181  VAL181      0.1561
     51  C         14.2490  -10.5320   35.1590 C.2   181  VAL181      0.2260
     52  O         13.8810   -9.3410   35.1680 O.2   181  VAL181     -0.2867
     53  CB        12.1330  -12.0350   35.3590 C.3   181  VAL181      0.0252
     54  CG1       11.2680  -10.9250   35.8010 C.3   181  VAL181      0.0019
     55  CG2       11.3260  -13.1620   34.6050 C.3   181  VAL181      0.0019
     56  N         15.5230   -7.1460   33.4620 N.3   184  VAL184     -0.1245
     57  CA        14.7570   -5.9370   33.2300 C.3   184  VAL184      0.1561
     58  C         14.9450   -4.9730   34.4250 C.2   184  VAL184      0.2260
     59  O         14.4850   -3.8220   34.3870 O.2   184  VAL184     -0.2867
     60  CB        13.2580   -6.2410   33.0540 C.3   184  VAL184      0.0252
     61  CG1       12.4880   -4.9240   32.9860 C.3   184  VAL184      0.0019
     62  CG2       13.0390   -7.0050   31.7070 C.3   184  VAL184      0.0019
     63  N         11.4120   -4.0340   39.8490 N.3   187  ASN187     -0.1225
     64  CA        10.7670   -4.9700   40.7420 C.3   187  ASN187      0.1785
     65  C         10.1020   -6.1550   39.9810 C.2   187  ASN187      0.2597
     66  O          9.4160   -6.9270   40.6020 O.2   187  ASN187     -0.2718
     67  CB         9.7920   -4.1430   41.6060 C.3   187  ASN187      0.1169
     68  CG         8.8840   -4.9600   42.5000 C.2   187  ASN187      0.2627
     69  OD1        9.3460   -5.5870   43.4800 O.2   187  ASN187     -0.2716
     70  ND2        7.5590   -4.8910   42.2270 N.am  187  ASN187     -0.0877
     71  N         10.4370   -6.3950   38.7060 N.am  188  SER188     -0.1952
     72  CA         9.7400   -7.4460   37.9230 C.3   188  SER188      0.1924
     73  C          9.9340   -8.8450   38.5130 C.2   188  SER188      0.2314
     74  O          9.0070   -9.6460   38.6180 O.2   188  SER188     -0.2863
     75  CB        10.2920   -7.4350   36.5120 C.3   188  SER188      0.2116
     76  OG         9.3250   -8.0020   35.6690 O.3   188  SER188     -0.2180
     77  N          8.1520   -9.0480   41.9030 N.3   191  ALA191     -0.1245
     78  CA         6.6790   -9.1100   41.7520 C.3   191  ALA191      0.1562
     79  C          6.2460  -10.4630   41.3010 C.2   191  ALA191      0.2260
     80  O          5.1880  -11.0050   41.7170 O.2   191  ALA191     -0.2867
     81  CB         6.2640   -8.0970   40.7160 C.3   191  ALA191      0.0290
     82  N          1.2630  -11.2100   36.2250 N.3   207  HIS207     -0.1226
     83  CA         2.5230  -10.6790   36.7600 C.3   207  HIS207      0.1752
     84  C          2.2200   -9.4420   37.6200 C.2   207  HIS207      0.2596
     85  O          2.8800   -9.3000   38.6840 O.2   207  HIS207     -0.2718
     86  CB         3.3700  -10.2550   35.5670 C.3   207  HIS207      0.0759
     87  CG         4.8130  -10.0170   35.8870 C.ar  207  HIS207      0.0818
     88  ND1        5.7830  -10.0020   34.8920 N.ar  207  HIS207     -0.2268
     89  CD2        5.4520   -9.9730   37.0730 C.ar  207  HIS207      0.1154
     90  CE1        6.9660   -9.8330   35.4750 C.ar  207  HIS207      0.1986
     91  NE2        6.7770   -9.7300   36.7890 N.ar  207  HIS207     -0.2212
     92  N          1.3500   -8.5560   37.1570 N.am  208  ASP208     -0.1974
     93  CA         1.1250   -7.2280   37.7980 C.3   208  ASP208      0.1709
     94  C         -0.3700   -7.0340   38.0240 C.2   208  ASP208      0.2293
     95  O         -1.0950   -6.5840   37.1320 O.2   208  ASP208     -0.2864
     96  CB         1.6790   -6.1400   36.9050 C.3   208  ASP208      0.1436
     97  CG         1.5690   -4.7490   37.4500 C.2   208  ASP208      0.3671
     98  OD1        0.8660   -4.5740   38.4920 O.co2 208  ASP208     -0.2456
     99  OD2        2.1450   -3.7670   36.8440 O.co2 208  ASP208     -0.2456
    100  N         -1.9150   -5.0120   39.8420 N.3   210  TRP210     -0.1241
    101  CA        -2.3190   -3.5900   39.8720 C.3   210  TRP210      0.1605
    102  C         -2.7250   -3.1540   38.4700 C.2   210  TRP210      0.2264
    103  O         -3.8310   -2.6840   38.2450 O.2   210  TRP210     -0.2867
    104  CB        -1.1920   -2.7100   40.4760 C.3   210  TRP210      0.0550
    105  CG        -1.4730   -1.2760   40.3880 C.ar  210  TRP210      0.0003
    106  CD1       -0.9450   -0.3620   39.5220 C.ar  210  TRP210      0.0946
    107  CD2       -2.4370   -0.5540   41.2060 C.ar  210  TRP210      0.0152
    108  NE1       -1.5100    0.9080   39.7620 N.ar  210  TRP210     -0.2442
    109  CE2       -2.3640    0.7880   40.8370 C.ar  210  TRP210      0.0810
    110  CE3       -3.2670   -0.9540   42.2610 C.ar  210  TRP210      0.0012
    111  CZ2       -3.2140    1.7730   41.4360 C.ar  210  TRP210      0.0191
    112  CZ3       -4.1240    0.0300   42.8610 C.ar  210  TRP210      0.0001
    113  CH2       -4.0670    1.3430   42.4040 C.ar  210  TRP210      0.0015
    114  N         11.7980  -12.2290   28.1280 N.3   255  THR255     -0.1203
    115  CA        12.2280  -12.2960   29.5230 C.3   255  THR255      0.1994
    116  C         11.5570  -13.4130   30.3380 C.2   255  THR255      0.2617
    117  O         12.0330  -13.7930   31.3990 O.2   255  THR255     -0.2717
    118  CB        11.9570  -10.9110   30.2440 C.3   255  THR255      0.1784
    119  OG1       10.6340  -10.6530   30.2820 O.3   255  THR255     -0.2211
    120  CG2       12.5310   -9.7930   29.3310 C.3   255  THR255      0.0376
    121  N         10.4700  -13.9310   29.8150 N.am  256  LEU256     -0.1979
    122  CA         9.5500  -14.8500   30.6060 C.3   256  LEU256      0.1596
    123  C          9.5340  -16.2740   30.0160 C.2   256  LEU256      0.2287
    124  O          8.6180  -17.0400   30.3130 O.2   256  LEU256     -0.2864
    125  CB         8.1460  -14.2650   30.8150 C.3   256  LEU256      0.0297
    126  CG         8.1090  -13.0200   31.6720 C.3   256  LEU256      0.0022
    127  CD1        6.6720  -12.4270   31.5150 C.3   256  LEU256      0.0001
    128  CD2        8.3430  -13.5010   33.1750 C.3   256  LEU256      0.0001
@<TRIPOS>BOND
     1    48    46   ar
     2    48    47   ar
     3    46    44   ar
     4    47    45   ar
     5    44    43   ar
     6    34    33    1
     7    34    35    2
     8    45    43   ar
     9    33    32    1
    10    43    42    1
    11    30    29    2
    12    32    31    1
    13    37    35    1
    14    31    28    1
    15    35    36    1
    16    12    14   ar
    17    12    10   ar
    18   114   115    1
    19    29    28    1
    20    14    13   ar
    21    28    27    1
    22    42    39    1
    23     9    10   ar
    24     9     7   ar
    25    39    38    1
    26    39    40    1
    27    10     8   ar
    28   120   118    1
    29   115   118    1
    30   115   116    1
    31    13    11   ar
    32   121   116   am
    33   121   122    1
    34     7     6   ar
    35   123   124    2
    36   123   122    1
    37     8    11   ar
    38     8     6   ar
    39    40    41    2
    40   118   119    1
    41   116   117    2
    42   122   125    1
    43     6     5    1
    44   125   126    1
    45     3     4    2
    46     3     2    1
    47     1     2    1
    48   127   126    1
    49   126   128    1
    50    62    60    1
    51     2     5    1
    52    18    17    2
    53    15    16    1
    54    17    16    1
    55    61    60    1
    56    60    57    1
    57    57    56    1
    58    57    58    1
    59    16    19    1
    60    49    50    1
    61    19    20    1
    62    59    58    2
    63    50    51    1
    64    50    53    1
    65    55    53    1
    66    22    20   ar
    67    22    24   ar
    68    88    90   ar
    69    88    87   ar
    70    20    21   ar
    71    51    52    2
    72    53    54    1
    73    90    91   ar
    74    86    87    1
    75    86    83    1
    76    24    25   ar
    77    76    75    1
    78    87    89   ar
    79    82    83    1
    80    21    23   ar
    81    75    72    1
    82    25    23   ar
    83    25    26    1
    84    83    84    1
    85    91    89   ar
    86    99    97   ar
    87    96    97    1
    88    96    93    1
    89    95    94    2
    90    92    84   am
    91    92    93    1
    92    97    98   ar
    93    84    85    2
    94    93    94    1
    95    72    73    1
    96    72    71    1
    97   103   102    2
    98   102   101    1
    99    73    74    2
   100    71    65   am
   101   106   108   ar
   102   106   105   ar
   103   108   109   ar
   104   100   101    1
   105    63    64    1
   106   101   104    1
   107    65    66    2
   108    65    64    1
   109   105   104    1
   110   105   107   ar
   111    81    78    1
   112    64    67    1
   113   109   107   ar
   114   109   111   ar
   115   107   110   ar
   116    79    80    2
   117    79    78    1
   118   111   113   ar
   119    67    68    1
   120    78    77    1
   121    70    68   am
   122   110   112   ar
   123   113   112   ar
   124    68    69    2
