@<TRIPOS>MOLECULE
tmp/3arvA00.pdb
 124 121 0 0 0
SMALL
GASTEIGER

@<TRIPOS>ATOM
      1  N         15.5230   -7.1460   33.4620 N.3   184  VAL184     -0.1245
      2  CA        14.7570   -5.9370   33.2300 C.3   184  VAL184      0.1561
      3  C         14.9450   -4.9730   34.4250 C.2   184  VAL184      0.2260
      4  O         14.4850   -3.8220   34.3870 O.2   184  VAL184     -0.2867
      5  CB        13.2580   -6.2410   33.0540 C.3   184  VAL184      0.0252
      6  CG1       12.4880   -4.9240   32.9860 C.3   184  VAL184      0.0019
      7  CG2       13.0390   -7.0050   31.7070 C.3   184  VAL184      0.0019
      8  N         10.5670  -12.6560   25.5150 N.3   254  TRP254     -0.1227
      9  CA        12.0210  -12.7460   25.7500 C.3   254  TRP254      0.1737
     10  C         12.3820  -12.9890   27.2040 C.2   254  TRP254      0.2596
     11  O         13.2520  -13.7700   27.4690 O.2   254  TRP254     -0.2718
     12  CB        12.6780  -11.3920   25.3100 C.3   254  TRP254      0.0564
     13  CG        14.1570  -11.3510   25.4720 C.ar  254  TRP254      0.0003
     14  CD1       14.8400  -10.7390   26.5160 C.ar  254  TRP254      0.0946
     15  CD2       15.1150  -11.8890   24.5950 C.ar  254  TRP254      0.0152
     16  NE1       16.2010  -10.9220   26.3380 N.ar  254  TRP254     -0.2442
     17  CE2       16.3890  -11.6320   25.1850 C.ar  254  TRP254      0.0810
     18  CE3       15.0470  -12.6400   23.4100 C.ar  254  TRP254      0.0012
     19  CZ2       17.5880  -12.0590   24.6020 C.ar  254  TRP254      0.0191
     20  CZ3       16.2630  -12.9960   22.7810 C.ar  254  TRP254      0.0001
     21  CH2       17.5010  -12.7170   23.4320 C.ar  254  TRP254      0.0015
     22  N         11.7980  -12.2290   28.1280 N.am  255  THR255     -0.1953
     23  CA        12.2280  -12.2960   29.5230 C.3   255  THR255      0.1897
     24  C         11.5570  -13.4130   30.3380 C.2   255  THR255      0.2313
     25  O         12.0330  -13.7930   31.3990 O.2   255  THR255     -0.2863
     26  CB        11.9570  -10.9110   30.2440 C.3   255  THR255      0.1794
     27  OG1       10.6340  -10.6530   30.2820 O.3   255  THR255     -0.2208
     28  CG2       12.5310   -9.7930   29.3310 C.3   255  THR255      0.0378
     29  N         10.7250  -18.1370   23.5820 N.3   294  GLU294     -0.1231
     30  CA        11.9260  -17.6030   22.9090 C.3   294  GLU294      0.1699
     31  C         13.1800  -18.2300   23.5650 C.2   294  GLU294      0.2592
     32  O         13.6610  -17.7230   24.6430 O.2   294  GLU294     -0.2718
     33  CB        11.9360  -16.0550   22.9970 C.3   294  GLU294      0.0402
     34  CG        10.7070  -15.4930   22.4020 C.3   294  GLU294      0.1161
     35  CD        10.7060  -13.9900   22.2720 C.2   294  GLU294      0.3649
     36  OE1       11.7310  -13.3510   22.3710 O.co2 294  GLU294     -0.2457
     37  OE2        9.5890  -13.4800   22.1330 O.co2 294  GLU294     -0.2457
     38  N         13.6780  -19.3820   23.0510 N.am  295  PHE295     -0.1976
     39  CA        13.2650  -20.0580   21.8340 C.3   295  PHE295      0.1639
     40  C         13.5360  -21.5500   22.0320 C.2   295  PHE295      0.2290
     41  O         14.5090  -21.8920   22.7310 O.2   295  PHE295     -0.2864
     42  CB        14.1330  -19.5980   20.5910 C.3   295  PHE295      0.0560
     43  CG        14.1240  -18.1000   20.3180 C.ar  295  PHE295     -0.0200
     44  CD1       13.1380  -17.5910   19.5100 C.ar  295  PHE295     -0.0042
     45  CD2       15.0930  -17.2920   20.8700 C.ar  295  PHE295     -0.0042
     46  CE1       13.0420  -16.2280   19.2480 C.ar  295  PHE295     -0.0003
     47  CE2       15.0480  -15.8850   20.6130 C.ar  295  PHE295     -0.0003
     48  CZ        14.0420  -15.3870   19.7830 C.ar  295  PHE295     -0.0000
     49  N         19.2380  -19.6950   22.5670 N.3   299  GLY299     -0.1225
     50  CA        19.5320  -18.4450   21.8790 C.3   299  GLY299      0.1811
     51  C         18.6450  -17.3240   22.3520 C.2   299  GLY299      0.2280
     52  O         18.5990  -16.2310   21.6910 O.2   299  GLY299     -0.2866
     53  N          8.3370  -13.5270   13.8590 N.3   368  MET368     -0.1245
     54  CA         9.0330  -12.3470   14.4980 C.3   368  MET368      0.1570
     55  C         10.0740  -11.8070   13.5180 C.2   368  MET368      0.2261
     56  O         11.2790  -11.9910   13.7120 O.2   368  MET368     -0.2867
     57  CB         9.7050  -12.7820   15.7900 C.3   368  MET368      0.0387
     58  CG         8.7160  -13.3210   16.8480 C.3   368  MET368      0.0595
     59  SD         9.5460  -14.1230   18.2840 S.3   368  MET368     -0.1393
     60  CE        10.8000  -12.9880   18.7090 C.3   368  MET368      0.0692
     61  N         14.2420   -7.5390   14.9210 N.3   371  ASP371     -0.1239
     62  CA        15.4100   -7.8230   15.7900 C.3   371  ASP371      0.1674
     63  C         16.4870   -8.6300   15.0860 C.2   371  ASP371      0.2266
     64  O         17.2060   -9.3840   15.7520 O.2   371  ASP371     -0.2867
     65  CB        14.9870   -8.5130   17.1060 C.3   371  ASP371      0.1410
     66  CG        14.0200   -7.7490   17.9160 C.2   371  ASP371      0.3668
     67  OD1       13.9620   -6.4910   17.8190 O.co2 371  ASP371     -0.2456
     68  OD2       13.2170   -8.3950   18.6630 O.co2 371  ASP371     -0.2456
     69  N         22.9250   -4.8390   20.7310 N.3   376  TRP376     -0.1227
     70  CA        23.6630   -5.8060   21.5400 C.3   376  TRP376      0.1737
     71  C         25.0430   -5.9980   21.0520 C.2   376  TRP376      0.2595
     72  O         25.9090   -6.5030   21.7990 O.2   376  TRP376     -0.2718
     73  CB        22.8990   -7.1660   21.5730 C.3   376  TRP376      0.0564
     74  CG        22.4890   -7.6450   20.2130 C.ar  376  TRP376      0.0003
     75  CD1       23.2200   -8.3790   19.3270 C.ar  376  TRP376      0.0946
     76  CD2       21.2160   -7.4530   19.6210 C.ar  376  TRP376      0.0152
     77  NE1       22.4730   -8.6270   18.1780 N.ar  376  TRP376     -0.2442
     78  CE2       21.2320   -8.1050   18.3500 C.ar  376  TRP376      0.0810
     79  CE3       20.0580   -6.8310   20.0640 C.ar  376  TRP376      0.0012
     80  CZ2       20.0830   -8.1470   17.4980 C.ar  376  TRP376      0.0191
     81  CZ3       18.9210   -6.8920   19.2270 C.ar  376  TRP376      0.0001
     82  CH2       18.9780   -7.5200   17.9540 C.ar  376  TRP376      0.0015
     83  N         25.3530   -5.6820   19.8200 N.am  377  ASN377     -0.1974
     84  CA        26.7440   -5.5980   19.3520 C.3   377  ASN377      0.1688
     85  C         26.9700   -4.3550   18.4950 C.2   377  ASN377      0.2292
     86  O         26.0390   -3.4850   18.4690 O.2   377  ASN377     -0.2864
     87  CB        27.1470   -6.9140   18.6650 C.3   377  ASN377      0.1181
     88  CG        26.3660   -7.1310   17.3650 C.2   377  ASN377      0.2629
     89  OD1       26.0010   -6.1590   16.6930 O.2   377  ASN377     -0.2716
     90  ND2       26.0680   -8.3830   17.0430 N.am  377  ASN377     -0.0877
     91  N         16.0260    0.0710   16.2950 N.3   442  ARG442     -0.1245
     92  CA        17.2120   -0.2610   17.1150 C.3   442  ARG442      0.1563
     93  C         18.3530    0.5950   16.6010 C.2   442  ARG442      0.2260
     94  O         18.3400    0.9930   15.4200 O.2   442  ARG442     -0.2867
     95  CB        17.5320   -1.7910   17.0310 C.3   442  ARG442      0.0307
     96  CG        16.4500   -2.5870   17.7500 C.3   442  ARG442      0.0489
     97  CD        16.9240   -4.0340   17.8950 C.3   442  ARG442      0.2205
     98  NE        15.9300   -4.8430   18.6170 N.pl3 442  ARG442     -0.0865
     99  CZ        15.8890   -4.9150   19.9270 C.cat 442  ARG442      0.5346
    100  NH1       16.8190   -4.3500   20.7130 N.pl3 442  ARG442      0.1354
    101  NH2       14.8790   -5.6290   20.4830 N.pl3 442  ARG442      0.1354
    102  N         15.1060    2.0290   26.8180 N.3   477  GLU477     -0.1301
    103  CA        16.2750    1.1970   27.0790 C.3   477  GLU477      0.1252
    104  C         17.3270    1.6040   26.0620 C.3   477  GLU477      0.2009
    105  O         16.9460    1.8920   24.8580 O.3   477  GLU477     -0.2188
    106  CB        15.7980   -0.2480   26.8980 C.3   477  GLU477      0.0335
    107  CG        16.8370   -1.2680   26.6410 C.3   477  GLU477      0.1156
    108  CD        16.3970   -2.6710   26.9840 C.2   477  GLU477      0.3649
    109  OE1       15.1680   -2.9060   27.0430 O.co2 477  GLU477     -0.2457
    110  OE2       17.2840   -3.5300   27.1780 O.co2 477  GLU477     -0.2457
    111  N          4.8730   -5.3220   16.8420 N.3   549  TRP549     -0.1241
    112  CA         5.3240   -5.0310   18.2180 C.3   549  TRP549      0.1605
    113  C          5.8090   -3.5690   18.2360 C.2   549  TRP549      0.2264
    114  O          6.6540   -3.1950   17.4360 O.2   549  TRP549     -0.2867
    115  CB         6.5440   -5.9680   18.6060 C.3   549  TRP549      0.0550
    116  CG         7.0870   -5.6310   19.9140 C.ar  549  TRP549      0.0003
    117  CD1        8.0820   -4.7090   20.1520 C.ar  549  TRP549      0.0946
    118  CD2        6.7050   -6.1550   21.2010 C.ar  549  TRP549      0.0152
    119  NE1        8.3080   -4.6260   21.5050 N.ar  549  TRP549     -0.2442
    120  CE2        7.4970   -5.5000   22.1710 C.ar  549  TRP549      0.0810
    121  CE3        5.7860   -7.1300   21.6190 C.ar  549  TRP549      0.0012
    122  CZ2        7.3360   -5.7670   23.5880 C.ar  549  TRP549      0.0191
    123  CZ3        5.6450   -7.3600   23.0010 C.ar  549  TRP549      0.0001
    124  CH2        6.4430   -6.6690   23.9460 C.ar  549  TRP549      0.0015
@<TRIPOS>BOND
     1    55    56    2
     2    55    54    1
     3    53    54    1
     4    54    57    1
     5    61    62    1
     6    63    64    2
     7    63    62    1
     8    94    93    2
     9    57    58    1
    10    62    65    1
    11    91    92    1
    12    93    92    1
    13    89    88    2
    14   111   112    1
    15    58    59    1
    16    95    92    1
    17    95    96    1
    18    90    88   am
    19    65    66    1
    20    88    87    1
    21   114   113    2
    22    80    82   ar
    23    80    78   ar
    24    96    97    1
    25    67    66   ar
    26    97    98    1
    27    66    68   ar
    28    82    81   ar
    29    77    78   ar
    30    77    75   ar
    31   112   113    1
    32   112   115    1
    33    59    60    1
    34    78    76   ar
    35    86    85    2
    36    85    84    1
    37   115   116    1
    38    98    99    2
    39    87    84    1
    40    81    79   ar
    41    46    44   ar
    42    46    48   ar
    43    75    74   ar
    44    84    83    1
    45    44    43   ar
    46    76    79   ar
    47    76    74   ar
    48    48    47   ar
    49    83    71   am
    50   116   117   ar
    51   116   118   ar
    52    99   101    1
    53    99   100    1
    54   117   119   ar
    55    74    73    1
    56    43    42    1
    57    43    45   ar
    58    42    39    1
    59    47    45   ar
    60    69    70    1
    61    71    70    1
    62    71    72    2
    63   118   121   ar
    64   118   120   ar
    65   119   120   ar
    66    70    73    1
    67   121   123   ar
    68    52    51    2
    69    39    40    1
    70    39    38    1
    71    50    51    1
    72    50    49    1
    73    40    41    2
    74    37    35   ar
    75   120   122   ar
    76    35    36   ar
    77    35    34    1
    78    34    33    1
    79    20    18   ar
    80    20    21   ar
    81    30    33    1
    82    30    31    1
    83    30    29    1
    84   123   124   ar
    85    38    31   am
    86    18    15   ar
    87    21    19   ar
    88    31    32    2
    89   122   124   ar
    90    15    17   ar
    91    15    13   ar
    92    19    17   ar
    93   105   104    1
    94    17    16   ar
    95    12    13    1
    96    12     9    1
    97    13    14   ar
    98     8     9    1
    99     9    10    1
   100   104   103    1
   101    16    14   ar
   102   107   106    1
   103   107   108    1
   104   102   103    1
   105   106   103    1
   106   108   109   ar
   107   108   110   ar
   108    10    11    2
   109    10    22   am
   110    22    23    1
   111    28    26    1
   112    23    26    1
   113    23    24    1
   114    26    27    1
   115    24    25    2
   116     7     5    1
   117     6     5    1
   118     5     2    1
   119     2     1    1
   120     2     3    1
   121     4     3    2
