@<TRIPOS>MOLECULE
tmp/3arxA01.pdb
 137 131 0 0 0
SMALL
GASTEIGER

@<TRIPOS>ATOM
      1  N         -0.8890   -7.1800   47.5720 N.3    27  THR27      -0.1274
      2  CA        -0.2870   -7.9710   46.4970 C.3    27  THR27       0.1548
      3  C          0.1470   -9.2820   47.1060 C.3    27  THR27       0.2036
      4  O          0.9670   -9.2740   48.1080 O.3    27  THR27      -0.2187
      5  CB         0.8880   -7.2070   45.9150 C.3    27  THR27       0.1721
      6  OG1        0.5120   -5.8670   45.5820 O.3    27  THR27      -0.2215
      7  CG2        1.3340   -7.8600   44.6560 C.3    27  THR27       0.0371
      8  N          2.6710   -3.2680   31.0750 N.3   147  TRP147     -0.1241
      9  CA         3.4220   -2.1970   31.7680 C.3   147  TRP147      0.1605
     10  C          3.4050   -0.9240   30.9850 C.2   147  TRP147      0.2264
     11  O          3.9840    0.1200   31.4300 O.2   147  TRP147     -0.2867
     12  CB         4.8850   -2.5700   31.9840 C.3   147  TRP147      0.0550
     13  CG         5.6110   -2.9460   30.7360 C.ar  147  TRP147      0.0003
     14  CD1        6.3540   -2.0850   29.9550 C.ar  147  TRP147      0.0946
     15  CD2        5.7120   -4.2380   30.1070 C.ar  147  TRP147      0.0152
     16  NE1        6.9110   -2.7430   28.8540 N.ar  147  TRP147     -0.2442
     17  CE2        6.5490   -4.0880   28.9440 C.ar  147  TRP147      0.0810
     18  CE3        5.1800   -5.4960   30.3920 C.ar  147  TRP147      0.0012
     19  CZ2        6.8180   -5.1240   28.0670 C.ar  147  TRP147      0.0191
     20  CZ3        5.4590   -6.5210   29.5210 C.ar  147  TRP147      0.0001
     21  CH2        6.2930   -6.3370   28.4000 C.ar  147  TRP147      0.0015
     22  N          2.3530    2.7500   32.5570 N.3   150  TYR150     -0.1241
     23  CA         3.1960    3.5330   33.5260 C.3   150  TYR150      0.1605
     24  C          3.8430    4.6540   32.7600 C.2   150  TYR150      0.2264
     25  O          3.1120    5.4760   32.2000 O.2   150  TYR150     -0.2867
     26  CB         4.1540    2.5810   34.2190 C.3   150  TYR150      0.0534
     27  CG         3.4820    1.5250   35.0660 C.ar  150  TYR150     -0.0201
     28  CD1        2.6850    1.8690   36.2010 C.ar  150  TYR150     -0.0009
     29  CD2        3.5730    0.1380   34.7470 C.ar  150  TYR150     -0.0009
     30  CE1        2.0120    0.9400   36.9480 C.ar  150  TYR150      0.0417
     31  CE2        2.9800   -0.8000   35.5290 C.ar  150  TYR150      0.0417
     32  CZ         2.1740   -0.4010   36.5830 C.ar  150  TYR150      0.1957
     33  OH         1.6090   -1.3650   37.4290 O.3   150  TYR150     -0.2866
     34  N          5.0330    4.9560   29.8040 N.3   152  ARG152     -0.1245
     35  CA         4.5960    5.0950   28.3920 C.3   152  ARG152      0.1563
     36  C          3.2310    5.6910   28.3190 C.2   152  ARG152      0.2260
     37  O          2.8060    6.1710   27.2270 O.2   152  ARG152     -0.2867
     38  CB         4.6990    3.7000   27.7350 C.3   152  ARG152      0.0307
     39  CG         6.1130    3.2790   27.4880 C.3   152  ARG152      0.0489
     40  CD         6.0930    1.7770   27.1500 C.3   152  ARG152      0.2205
     41  NE         7.5210    1.2840   26.9190 N.pl3 152  ARG152     -0.0865
     42  CZ         8.3220    0.9270   27.9230 C.cat 152  ARG152      0.5346
     43  NH1        8.0160    1.0090   29.1460 N.pl3 152  ARG152      0.1354
     44  NH2        9.5330    0.4600   27.6290 N.pl3 152  ARG152      0.1354
     45  N          2.7080   -9.6030   29.0360 N.3   171  PHE171     -0.1241
     46  CA         2.9970  -11.0340   28.9000 C.3   171  PHE171      0.1605
     47  C          2.6290  -11.7860   30.1890 C.2   171  PHE171      0.2264
     48  O          2.8510  -11.2310   31.2800 O.2   171  PHE171     -0.2867
     49  CB         4.4650  -11.2850   28.5710 C.3   171  PHE171      0.0534
     50  CG         4.8560  -10.7720   27.1960 C.ar  171  PHE171     -0.0203
     51  CD1        4.6190  -11.4740   26.0810 C.ar  171  PHE171     -0.0042
     52  CD2        5.2810   -9.4870   27.0310 C.ar  171  PHE171     -0.0042
     53  CE1        4.9280  -10.9950   24.8110 C.ar  171  PHE171     -0.0003
     54  CE2        5.5840   -8.9280   25.7720 C.ar  171  PHE171     -0.0003
     55  CZ         5.3480   -9.6590   24.6490 C.ar  171  PHE171     -0.0000
     56  N         14.2890  -12.8270   33.9710 N.3   181  VAL181     -0.1245
     57  CA        13.5460  -11.6450   34.3460 C.3   181  VAL181      0.1561
     58  C         14.3770  -10.5960   35.0490 C.2   181  VAL181      0.2260
     59  O         14.0700   -9.4020   35.0450 O.2   181  VAL181     -0.2867
     60  CB        12.2860  -12.0300   35.3000 C.3   181  VAL181      0.0252
     61  CG1       11.5170  -10.7510   35.7130 C.3   181  VAL181      0.0019
     62  CG2       11.3430  -12.9630   34.4880 C.3   181  VAL181      0.0019
     63  N         15.6870   -7.2040   33.3730 N.3   184  VAL184     -0.1245
     64  CA        14.7830   -6.0540   33.2700 C.3   184  VAL184      0.1561
     65  C         15.1390   -5.0520   34.4340 C.2   184  VAL184      0.2260
     66  O         14.6970   -3.8850   34.4220 O.2   184  VAL184     -0.2867
     67  CB        13.3010   -6.6250   33.4260 C.3   184  VAL184      0.0252
     68  CG1       12.2000   -5.6020   33.4870 C.3   184  VAL184      0.0019
     69  CG2       12.9640   -7.5700   32.2780 C.3   184  VAL184      0.0019
     70  N         11.4670   -4.1060   39.8380 N.3   187  ASN187     -0.1225
     71  CA        10.6450   -4.9920   40.6420 C.3   187  ASN187      0.1785
     72  C         10.1460   -6.2380   39.9460 C.2   187  ASN187      0.2597
     73  O          9.4390   -7.0020   40.5350 O.2   187  ASN187     -0.2718
     74  CB         9.4440   -4.1700   41.1790 C.3   187  ASN187      0.1169
     75  CG         8.6490   -4.8810   42.2360 C.2   187  ASN187      0.2627
     76  OD1        9.1980   -5.4780   43.1830 O.2   187  ASN187     -0.2716
     77  ND2        7.3220   -4.8190   42.0770 N.am  187  ASN187     -0.0877
     78  N         10.4920   -6.4440   38.6640 N.am  188  SER188     -0.1952
     79  CA         9.8510   -7.4610   37.8450 C.3   188  SER188      0.1924
     80  C         10.0290   -8.8760   38.4430 C.2   188  SER188      0.2314
     81  O          9.0780   -9.6610   38.5540 O.2   188  SER188     -0.2863
     82  CB        10.4780   -7.3560   36.4800 C.3   188  SER188      0.2116
     83  OG         9.5850   -8.0860   35.7130 O.3   188  SER188     -0.2180
     84  N          8.2060   -9.1100   41.8810 N.3   191  ALA191     -0.1245
     85  CA         6.7060   -9.1850   41.6520 C.3   191  ALA191      0.1562
     86  C          6.3150  -10.5390   41.2270 C.2   191  ALA191      0.2260
     87  O          5.2300  -11.0760   41.6170 O.2   191  ALA191     -0.2867
     88  CB         6.2880   -8.1520   40.6190 C.3   191  ALA191      0.0290
     89  N          1.3210  -11.2220   36.1700 N.3   207  HIS207     -0.1226
     90  CA         2.5800  -10.6190   36.6750 C.3   207  HIS207      0.1752
     91  C          2.2860   -9.4650   37.5470 C.2   207  HIS207      0.2596
     92  O          2.9190   -9.2930   38.6170 O.2   207  HIS207     -0.2718
     93  CB         3.4410  -10.1300   35.5120 C.3   207  HIS207      0.0759
     94  CG         4.9180  -10.1310   35.8020 C.ar  207  HIS207      0.0818
     95  ND1        5.8660  -10.0810   34.7910 N.ar  207  HIS207     -0.2268
     96  CD2        5.5950   -9.9600   36.9850 C.ar  207  HIS207      0.1154
     97  CE1        7.0700   -9.9300   35.3510 C.ar  207  HIS207      0.1986
     98  NE2        6.9510   -9.8910   36.6620 N.ar  207  HIS207     -0.2212
     99  N          1.4320   -8.5260   37.1060 N.am  208  ASP208     -0.1960
    100  CA         1.2160   -7.2010   37.7300 C.3   208  ASP208      0.1825
    101  C         -0.2420   -6.9960   37.9290 C.2   208  ASP208      0.2464
    102  O         -0.9600   -6.5430   37.0700 O.2   208  ASP208     -0.2730
    103  CB         1.8510   -6.1260   36.8790 C.3   208  ASP208      0.1450
    104  CG         1.7250   -4.7330   37.3910 C.2   208  ASP208      0.3671
    105  OD1        0.9770   -4.5360   38.4380 O.co2 208  ASP208     -0.2456
    106  OD2        2.2490   -3.7840   36.7650 O.co2 208  ASP208     -0.2456
    107  N         -0.7980   -7.4630   39.0900 N.am  209  PRO209     -0.2727
    108  CA        -2.2430   -7.3150   39.3190 C.3   209  PRO209      0.1402
    109  C         -2.6530   -5.8900   39.4280 C.2   209  PRO209      0.2269
    110  O         -3.8550   -5.6470   39.1680 O.2   209  PRO209     -0.2865
    111  CB        -2.4920   -8.1150   40.6150 C.3   209  PRO209      0.0296
    112  CG        -1.1960   -8.3350   41.1960 C.3   209  PRO209      0.0237
    113  CD        -0.1230   -8.2970   40.1070 C.3   209  PRO209      0.0939
    114  N         12.0230  -12.3880   28.1280 N.3   255  THR255     -0.1203
    115  CA        12.4310  -12.4990   29.5130 C.3   255  THR255      0.1994
    116  C         11.6870  -13.5710   30.3080 C.2   255  THR255      0.2617
    117  O         12.1250  -13.9210   31.4120 O.2   255  THR255     -0.2717
    118  CB        12.3270  -11.1780   30.3060 C.3   255  THR255      0.1784
    119  OG1       11.0470  -10.7130   30.2820 O.3   255  THR255     -0.2211
    120  CG2       13.2370  -10.1660   29.6120 C.3   255  THR255      0.0376
    121  N         10.5720  -14.0670   29.7860 N.am  256  LEU256     -0.1979
    122  CA         9.6720  -14.9550   30.5570 C.3   256  LEU256      0.1596
    123  C          9.6190  -16.3260   29.9370 C.2   256  LEU256      0.2287
    124  O          8.7090  -17.1070   30.1800 O.2   256  LEU256     -0.2864
    125  CB         8.2840  -14.3530   30.7130 C.3   256  LEU256      0.0297
    126  CG         8.2110  -13.1480   31.6120 C.3   256  LEU256      0.0022
    127  CD1        6.8090  -12.4790   31.4250 C.3   256  LEU256      0.0001
    128  CD2        8.3990  -13.5980   33.0650 C.3   256  LEU256      0.0001
    129  N         15.1660    2.0210   26.7320 N.3   477  GLU477     -0.1301
    130  CA        16.3710    1.2680   27.0440 C.3   477  GLU477      0.1252
    131  C         17.3710    1.6360   25.9750 C.3   477  GLU477      0.2009
    132  O         17.0020    1.9130   24.7620 O.3   477  GLU477     -0.2188
    133  CB        16.0510   -0.2370   27.0060 C.3   477  GLU477      0.0335
    134  CG        17.1490   -1.1870   26.7680 C.3   477  GLU477      0.1156
    135  CD        16.6770   -2.6220   26.5480 C.2   477  GLU477      0.3649
    136  OE1       15.4580   -2.9130   26.6790 O.co2 477  GLU477     -0.2457
    137  OE2       17.5480   -3.4590   26.2660 O.co2 477  GLU477     -0.2457
@<TRIPOS>BOND
     1    55    53   ar
     2    55    54   ar
     3   132   131    1
     4    53    51   ar
     5    54    52   ar
     6   131   130    1
     7    51    50   ar
     8   137   135   ar
     9   135   136   ar
    10   135   134    1
    11   129   130    1
    12   134   133    1
    13    41    40    1
    14    41    42    2
    15   133   130    1
    16    52    50   ar
    17    40    39    1
    18    50    49    1
    19    37    36    2
    20    39    38    1
    21    44    42    1
    22    38    35    1
    23    42    43    1
    24    19    21   ar
    25    19    17   ar
    26   114   115    1
    27    36    35    1
    28    35    34    1
    29    21    20   ar
    30    49    46    1
    31    16    17   ar
    32    16    14   ar
    33    46    45    1
    34    46    47    1
    35    17    15   ar
    36   115   118    1
    37   115   116    1
    38    20    18   ar
    39   120   118    1
    40   121   116   am
    41   121   122    1
    42   123   124    2
    43   123   122    1
    44    14    13   ar
    45    15    18   ar
    46    15    13   ar
    47    47    48    2
    48   119   118    1
    49   116   117    2
    50   122   125    1
    51   125   126    1
    52    13    12    1
    53    10    11    2
    54    10     9    1
    55     8     9    1
    56   127   126    1
    57   126   128    1
    58     9    12    1
    59    25    24    2
    60    69    67    1
    61    22    23    1
    62    24    23    1
    63    64    63    1
    64    64    67    1
    65    64    65    1
    66    67    68    1
    67    23    26    1
    68    56    57    1
    69    26    27    1
    70    57    58    1
    71    57    60    1
    72    66    65    2
    73    62    60    1
    74    29    27   ar
    75    29    31   ar
    76    95    97   ar
    77    95    94   ar
    78    59    58    2
    79    27    28   ar
    80    60    61    1
    81    97    98   ar
    82    93    94    1
    83    93    90    1
    84    31    32   ar
    85    83    82    1
    86    94    96   ar
    87    89    90    1
    88    28    30   ar
    89    82    79    1
    90    32    30   ar
    91    32    33    1
    92    98    96   ar
    93    90    91    1
    94   106   104   ar
    95   103   104    1
    96   103   100    1
    97   102   101    2
    98    99    91   am
    99    99   100    1
   100   104   105   ar
   101    91    92    2
   102   100   101    1
   103    79    80    1
   104    79    78    1
   105   101   107   am
   106    80    81    2
   107    78    72   am
   108   107   108    1
   109   107   113    1
   110   110   109    2
   111   108   109    1
   112   108   111    1
   113    70    71    1
   114    72    73    2
   115    72    71    1
   116   113   112    1
   117   111   112    1
   118    88    85    1
   119    71    74    1
   120    74    75    1
   121    86    87    2
   122    86    85    1
   123    85    84    1
   124    77    75   am
   125    75    76    2
   126     7     5    1
   127     6     5    1
   128     5     2    1
   129     2     3    1
   130     2     1    1
   131     3     4    1
