@<TRIPOS>MOLECULE
tmp/3arxA00.pdb
 147 144 0 0 0
SMALL
GASTEIGER

@<TRIPOS>ATOM
      1  N         10.7690  -12.6330   25.5640 N.3   254  TRP254     -0.1241
      2  CA        12.2200  -12.7610   25.7300 C.3   254  TRP254      0.1605
      3  C         12.6070  -13.0640   27.1740 C.2   254  TRP254      0.2264
      4  O         13.5030  -13.8460   27.4050 O.2   254  TRP254     -0.2867
      5  CB        12.8880  -11.4110   25.2950 C.3   254  TRP254      0.0550
      6  CG        14.3540  -11.3840   25.3870 C.ar  254  TRP254      0.0003
      7  CD1       15.0820  -10.7330   26.3530 C.ar  254  TRP254      0.0946
      8  CD2       15.2950  -11.9430   24.4660 C.ar  254  TRP254      0.0152
      9  NE1       16.4230  -10.8540   26.0750 N.ar  254  TRP254     -0.2442
     10  CE2       16.5920  -11.6010   24.9540 C.ar  254  TRP254      0.0810
     11  CE3       15.2020  -12.6920   23.3020 C.ar  254  TRP254      0.0012
     12  CZ2       17.7330  -11.9930   24.2910 C.ar  254  TRP254      0.0191
     13  CZ3       16.3790  -13.0080   22.5880 C.ar  254  TRP254      0.0001
     14  CH2       17.6050  -12.7300   23.1750 C.ar  254  TRP254      0.0015
     15  N         10.7940  -18.1890   23.4500 N.3   294  GLU294     -0.1231
     16  CA        12.0060  -17.6550   22.7760 C.3   294  GLU294      0.1699
     17  C         13.2320  -18.3360   23.4150 C.2   294  GLU294      0.2592
     18  O         13.7150  -17.8380   24.4730 O.2   294  GLU294     -0.2718
     19  CB        12.0580  -16.1070   22.9430 C.3   294  GLU294      0.0402
     20  CG        10.8200  -15.4990   22.3310 C.3   294  GLU294      0.1161
     21  CD        10.8780  -13.9560   22.2820 C.2   294  GLU294      0.3649
     22  OE1       12.0050  -13.4470   22.2580 O.co2 294  GLU294     -0.2457
     23  OE2        9.7830  -13.3590   22.2060 O.co2 294  GLU294     -0.2457
     24  N         13.7180  -19.4520   22.8730 N.am  295  PHE295     -0.1976
     25  CA        13.3220  -20.1200   21.6680 C.3   295  PHE295      0.1639
     26  C         13.5640  -21.6190   21.8860 C.2   295  PHE295      0.2290
     27  O         14.5720  -21.9170   22.5160 O.2   295  PHE295     -0.2864
     28  CB        14.1810  -19.6780   20.4490 C.3   295  PHE295      0.0560
     29  CG        14.1720  -18.1880   20.1800 C.ar  295  PHE295     -0.0200
     30  CD1       13.1360  -17.6310   19.4280 C.ar  295  PHE295     -0.0042
     31  CD2       15.1840  -17.4100   20.6810 C.ar  295  PHE295     -0.0042
     32  CE1       13.1050  -16.2100   19.1990 C.ar  295  PHE295     -0.0003
     33  CE2       15.1390  -15.9860   20.3900 C.ar  295  PHE295     -0.0003
     34  CZ        14.1190  -15.4520   19.6860 C.ar  295  PHE295     -0.0000
     35  N         19.3070  -19.7010   22.2610 N.3   299  GLY299     -0.1225
     36  CA        19.5760  -18.4660   21.5470 C.3   299  GLY299      0.1811
     37  C         18.7560  -17.3050   22.0660 C.2   299  GLY299      0.2280
     38  O         18.7600  -16.2630   21.3470 O.2   299  GLY299     -0.2866
     39  N         10.8380  -17.3510   16.3580 N.3   344  GLY344     -0.1210
     40  CA        12.0020  -16.8070   15.7030 C.3   344  GLY344      0.1956
     41  C         12.0670  -17.2100   14.2370 C.2   344  GLY344      0.2612
     42  O         11.5470  -18.2680   13.8090 O.2   344  GLY344     -0.2717
     43  N         12.6930  -16.3410   13.4270 N.am  345  VAL345     -0.1965
     44  CA        12.7670  -16.6530   11.9860 C.3   345  VAL345      0.1727
     45  C         14.1980  -16.7100   11.4790 C.2   345  VAL345      0.2616
     46  O         14.3610  -16.9190   10.2460 O.2   345  VAL345     -0.2715
     47  CB        11.9490  -15.6410   11.1420 C.3   345  VAL345      0.0290
     48  CG1       10.5620  -15.5290   11.6570 C.3   345  VAL345      0.0023
     49  CG2       12.6410  -14.2170   11.1540 C.3   345  VAL345      0.0023
     50  N         15.1950  -16.6460   12.3110 N.am  346  GLY346     -0.1955
     51  CA        16.5440  -17.0340   11.8570 C.3   346  GLY346      0.1869
     52  C         16.5190  -18.4800   11.4810 C.2   346  GLY346      0.2309
     53  O         15.8280  -19.3230   12.0970 O.2   346  GLY346     -0.2863
     54  N         16.8500  -20.8440   14.3940 N.3   349  LYS349     -0.1245
     55  CA        15.6740  -21.0230   15.2140 C.3   349  LYS349      0.1561
     56  C         14.7430  -21.9660   14.5410 C.2   349  LYS349      0.2260
     57  O         14.2290  -22.9150   15.1410 O.2   349  LYS349     -0.2867
     58  CB        14.9900  -19.6460   15.4730 C.3   349  LYS349      0.0271
     59  CG        15.9230  -18.6010   16.0170 C.3   349  LYS349      0.0035
     60  CD        16.6410  -18.9900   17.2580 C.3   349  LYS349      0.0206
     61  CE        17.4030  -17.8710   17.9550 C.3   349  LYS349      0.1093
     62  NZ        18.4220  -17.2800   16.9920 N.3   349  LYS349     -0.1314
     63  N          8.3740  -13.5820   13.8780 N.3   368  MET368     -0.1245
     64  CA         9.1760  -12.4320   14.5390 C.3   368  MET368      0.1570
     65  C         10.1090  -11.8790   13.5300 C.2   368  MET368      0.2261
     66  O         11.3150  -12.0430   13.6840 O.2   368  MET368     -0.2867
     67  CB         9.9150  -12.8720   15.8070 C.3   368  MET368      0.0387
     68  CG         8.9520  -13.3860   16.8660 C.3   368  MET368      0.0595
     69  SD         9.5650  -14.1750   18.2810 S.3   368  MET368     -0.1393
     70  CE        10.8240  -12.8210   18.8220 C.3   368  MET368      0.0692
     71  N         11.8270   -9.3170   12.8980 N.3   370  TYR370     -0.1227
     72  CA        12.4480   -8.0530   13.4290 C.3   370  TYR370      0.1736
     73  C         13.5440   -8.5240   14.3730 C.2   370  TYR370      0.2595
     74  O         13.7230   -9.7440   14.6040 O.2   370  TYR370     -0.2718
     75  CB        11.3950   -7.1310   14.1080 C.3   370  TYR370      0.0548
     76  CG        10.3710   -7.8130   14.9340 C.ar  370  TYR370     -0.0200
     77  CD1       10.7130   -8.4670   16.1330 C.ar  370  TYR370     -0.0009
     78  CD2        9.0550   -7.8540   14.5410 C.ar  370  TYR370     -0.0009
     79  CE1        9.7190   -9.1150   16.9230 C.ar  370  TYR370      0.0417
     80  CE2        8.0800   -8.4530   15.3220 C.ar  370  TYR370      0.0417
     81  CZ         8.4460   -9.0890   16.4950 C.ar  370  TYR370      0.1957
     82  OH         7.4340   -9.6560   17.3020 O.3   370  TYR370     -0.2866
     83  N         14.3120   -7.5850   14.9090 N.am  371  ASP371     -0.1960
     84  CA        15.4440   -7.8530   15.7690 C.3   371  ASP371      0.1840
     85  C         16.5080   -8.6750   15.0290 C.2   371  ASP371      0.2622
     86  O         17.2740   -9.3920   15.6990 O.2   371  ASP371     -0.2715
     87  CB        15.0360   -8.5280   17.0850 C.3   371  ASP371      0.1450
     88  CG        14.0930   -7.7890   17.8560 C.2   371  ASP371      0.3671
     89  OD1       13.9430   -6.5400   17.7340 O.co2 371  ASP371     -0.2456
     90  OD2       13.3240   -8.4360   18.6920 O.co2 371  ASP371     -0.2456
     91  N         16.7220   -8.3980   13.7320 N.am  372  PHE372     -0.1974
     92  CA        17.7640   -9.1440   13.0030 C.3   372  PHE372      0.1639
     93  C         19.1470   -8.6310   13.3640 C.2   372  PHE372      0.2290
     94  O         20.1280   -9.4210   13.2450 O.2   372  PHE372     -0.2864
     95  CB        17.5440   -9.0280   11.5160 C.3   372  PHE372      0.0560
     96  CG        16.1980   -9.5420   11.0060 C.ar  372  PHE372     -0.0200
     97  CD1       15.5730  -10.5900   11.6540 C.ar  372  PHE372     -0.0042
     98  CD2       15.6410   -8.9980    9.8880 C.ar  372  PHE372     -0.0042
     99  CE1       14.3360  -11.0660   11.1380 C.ar  372  PHE372     -0.0003
    100  CE2       14.4300   -9.4390    9.3570 C.ar  372  PHE372     -0.0003
    101  CZ        13.7940  -10.4940    9.9770 C.ar  372  PHE372     -0.0000
    102  N         22.9750   -4.8890   20.7740 N.3   376  TRP376     -0.1241
    103  CA        23.7020   -5.8660   21.5700 C.3   376  TRP376      0.1605
    104  C         25.0580   -6.0480   21.0000 C.2   376  TRP376      0.2264
    105  O         25.9290   -6.5800   21.7810 O.2   376  TRP376     -0.2867
    106  CB        22.9310   -7.2230   21.6270 C.3   376  TRP376      0.0550
    107  CG        22.4930   -7.7390   20.2950 C.ar  376  TRP376      0.0003
    108  CD1       23.1720   -8.5130   19.4420 C.ar  376  TRP376      0.0946
    109  CD2       21.2100   -7.5390   19.6980 C.ar  376  TRP376      0.0152
    110  NE1       22.4270   -8.7700   18.3000 N.ar  376  TRP376     -0.2442
    111  CE2       21.1870   -8.2490   18.4940 C.ar  376  TRP376      0.0810
    112  CE3       20.0730   -6.8670   20.1270 C.ar  376  TRP376      0.0012
    113  CZ2       20.0750   -8.2570   17.6600 C.ar  376  TRP376      0.0191
    114  CZ3       18.9340   -6.9210   19.2180 C.ar  376  TRP376      0.0001
    115  CH2       19.0250   -7.6090   18.0700 C.ar  376  TRP376      0.0015
    116  N         19.9040  -13.1370    8.3190 N.3   414  TYR414     -0.1241
    117  CA        18.6380  -12.7850    8.9940 C.3   414  TYR414      0.1605
    118  C         17.9110  -11.7700    8.1780 C.2   414  TYR414      0.2264
    119  O         18.1840  -10.5410    8.3020 O.2   414  TYR414     -0.2867
    120  CB        18.9320  -12.3190   10.4280 C.3   414  TYR414      0.0534
    121  CG        19.3140  -13.4070   11.4320 C.ar  414  TYR414     -0.0201
    122  CD1       19.4110  -14.7670   11.1320 C.ar  414  TYR414     -0.0009
    123  CD2       19.5470  -13.0000   12.7480 C.ar  414  TYR414     -0.0009
    124  CE1       19.6750  -15.6800   12.0920 C.ar  414  TYR414      0.0417
    125  CE2       19.8180  -13.9310   13.7350 C.ar  414  TYR414      0.0417
    126  CZ        19.7940  -15.2790   13.4310 C.ar  414  TYR414      0.1957
    127  OH        20.0130  -16.1950   14.4790 O.3   414  TYR414     -0.2866
    128  N         16.0270    0.0610   16.2730 N.3   442  ARG442     -0.1245
    129  CA        17.2130   -0.2490   17.0490 C.3   442  ARG442      0.1563
    130  C         18.3300    0.6110   16.5160 C.2   442  ARG442      0.2260
    131  O         18.3330    1.0200   15.3380 O.2   442  ARG442     -0.2867
    132  CB        17.5810   -1.7270   16.9540 C.3   442  ARG442      0.0307
    133  CG        16.4980   -2.5870   17.6590 C.3   442  ARG442      0.0489
    134  CD        16.9540   -4.0670   17.7830 C.3   442  ARG442      0.2205
    135  NE        15.9770   -4.8460   18.4890 N.pl3 442  ARG442     -0.0865
    136  CZ        15.8880   -4.8810   19.8160 C.cat 442  ARG442      0.5346
    137  NH1       16.8030   -4.3670   20.6310 N.pl3 442  ARG442      0.1354
    138  NH2       14.8400   -5.5340   20.3800 N.pl3 442  ARG442      0.1354
    139  N         15.1660    2.0210   26.7320 N.3   477  GLU477     -0.1301
    140  CA        16.3710    1.2680   27.0440 C.3   477  GLU477      0.1252
    141  C         17.3710    1.6360   25.9750 C.3   477  GLU477      0.2009
    142  O         17.0020    1.9130   24.7620 O.3   477  GLU477     -0.2188
    143  CB        16.0510   -0.2370   27.0060 C.3   477  GLU477      0.0335
    144  CG        17.1490   -1.1870   26.7680 C.3   477  GLU477      0.1156
    145  CD        16.6770   -2.6220   26.5480 C.2   477  GLU477      0.3649
    146  OE1       15.4580   -2.9130   26.6790 O.co2 477  GLU477     -0.2457
    147  OE2       17.5480   -3.4590   26.2660 O.co2 477  GLU477     -0.2457
@<TRIPOS>BOND
     1   118   119    2
     2   118   117    1
     3   116   117    1
     4   117   120    1
     5   100    98   ar
     6   100   101   ar
     7    98    96   ar
     8   101    99   ar
     9    46    45    2
    10   120   121    1
    11    96    95    1
    12    96    97   ar
    13   122   121   ar
    14   122   124   ar
    15    99    97   ar
    16    47    49    1
    17    47    48    1
    18    47    44    1
    19   121   123   ar
    20    45    44    1
    21    45    50   am
    22    52    51    1
    23    52    53    2
    24    95    92    1
    25    51    50    1
    26    44    43    1
    27   124   126   ar
    28   123   125   ar
    29    71    72    1
    30    92    93    1
    31    92    91    1
    32    94    93    2
    33    43    41   am
    34    72    75    1
    35    72    73    1
    36   126   125   ar
    37   126   127    1
    38    65    66    2
    39    65    64    1
    40    91    85   am
    41    42    41    2
    42    63    64    1
    43    75    76    1
    44    41    40    1
    45    73    74    2
    46    73    83   am
    47    54    55    1
    48    64    67    1
    49    56    57    2
    50    56    55    1
    51    78    76   ar
    52    78    80   ar
    53    83    84    1
    54    76    77   ar
    55    85    86    2
    56    85    84    1
    57    55    58    1
    58    80    81   ar
    59   131   130    2
    60    58    59    1
    61    40    39    1
    62    84    87    1
    63    67    68    1
    64    59    60    1
    65    77    79   ar
    66   128   129    1
    67    81    79   ar
    68    81    82    1
    69   130   129    1
    70    68    69    1
    71   132   129    1
    72   132   133    1
    73    62    61    1
    74    87    88    1
    75    60    61    1
    76   133   134    1
    77   113   115   ar
    78   113   111   ar
    79    89    88   ar
    80   134   135    1
    81    88    90   ar
    82   115   114   ar
    83    69    70    1
    84   110   111   ar
    85   110   108   ar
    86   135   136    2
    87   111   109   ar
    88    32    30   ar
    89    32    34   ar
    90   114   112   ar
    91    30    29   ar
    92   108   107   ar
    93    34    33   ar
    94   109   112   ar
    95   109   107   ar
    96   136   138    1
    97   136   137    1
    98    29    28    1
    99    29    31   ar
   100   107   106    1
   101    33    31   ar
   102    28    25    1
   103   102   103    1
   104   104   103    1
   105   104   105    2
   106    38    37    2
   107    36    37    1
   108    36    35    1
   109   103   106    1
   110    25    26    1
   111    25    24    1
   112    26    27    2
   113    23    21   ar
   114    22    21   ar
   115    21    20    1
   116    20    19    1
   117    13    14   ar
   118    13    11   ar
   119    16    19    1
   120    16    17    1
   121    16    15    1
   122    24    17   am
   123    14    12   ar
   124    11     8   ar
   125    17    18    2
   126    12    10   ar
   127     8    10   ar
   128     8     6   ar
   129   142   141    1
   130    10     9   ar
   131     5     6    1
   132     5     2    1
   133     6     7   ar
   134     1     2    1
   135     2     3    1
   136   141   140    1
   137     9     7   ar
   138   147   145   ar
   139   145   146   ar
   140   145   144    1
   141   139   140    1
   142   144   143    1
   143   143   140    1
   144     3     4    2
