@<TRIPOS>MOLECULE
tmp/3aryA01.pdb
 107 103 0 0 0
SMALL
GASTEIGER

@<TRIPOS>ATOM
      1  N          2.6230   -3.3680   31.1580 N.3   147  TRP147     -0.1241
      2  CA         3.3470   -2.3040   31.8200 C.3   147  TRP147      0.1605
      3  C          3.3080   -0.9700   31.0670 C.2   147  TRP147      0.2264
      4  O          3.9080    0.0540   31.5160 O.2   147  TRP147     -0.2867
      5  CB         4.7790   -2.7370   32.0800 C.3   147  TRP147      0.0550
      6  CG         5.5250   -3.0110   30.7940 C.ar  147  TRP147      0.0003
      7  CD1        6.2530   -2.1430   30.0340 C.ar  147  TRP147      0.0946
      8  CD2        5.6500   -4.3250   30.1600 C.ar  147  TRP147      0.0152
      9  NE1        6.7580   -2.7840   28.8910 N.ar  147  TRP147     -0.2442
     10  CE2        6.4180   -4.1230   28.9780 C.ar  147  TRP147      0.0810
     11  CE3        5.0930   -5.5800   30.4370 C.ar  147  TRP147      0.0012
     12  CZ2        6.7470   -5.1620   28.1110 C.ar  147  TRP147      0.0191
     13  CZ3        5.3760   -6.5970   29.5330 C.ar  147  TRP147      0.0001
     14  CH2        6.1900   -6.3950   28.4160 C.ar  147  TRP147      0.0015
     15  N          2.3190    2.6720   32.6230 N.3   150  TYR150     -0.1241
     16  CA         3.1300    3.4280   33.5930 C.3   150  TYR150      0.1605
     17  C          3.7350    4.5630   32.8310 C.2   150  TYR150      0.2264
     18  O          3.0000    5.4340   32.2710 O.2   150  TYR150     -0.2867
     19  CB         4.0850    2.4330   34.3120 C.3   150  TYR150      0.0534
     20  CG         3.3780    1.4190   35.1260 C.ar  150  TYR150     -0.0201
     21  CD1        2.5630    1.8130   36.2270 C.ar  150  TYR150     -0.0009
     22  CD2        3.4380    0.0480   34.8520 C.ar  150  TYR150     -0.0009
     23  CE1        1.8790    0.8710   36.9670 C.ar  150  TYR150      0.0417
     24  CE2        2.8590   -0.9040   35.5940 C.ar  150  TYR150      0.0417
     25  CZ         2.0190   -0.5070   36.6770 C.ar  150  TYR150      0.1957
     26  OH         1.4360   -1.4960   37.4470 O.3   150  TYR150     -0.2866
     27  N          5.0240    4.8410   29.8490 N.3   152  ARG152     -0.1245
     28  CA         4.5460    4.9570   28.4590 C.3   152  ARG152      0.1563
     29  C          3.1300    5.5740   28.3470 C.2   152  ARG152      0.2260
     30  O          2.7460    6.0090   27.2890 O.2   152  ARG152     -0.2867
     31  CB         4.5880    3.5620   27.7700 C.3   152  ARG152      0.0307
     32  CG         6.0760    3.1400   27.5130 C.3   152  ARG152      0.0489
     33  CD         6.0550    1.6150   27.1460 C.3   152  ARG152      0.2205
     34  NE         7.4390    1.1470   26.9230 N.pl3 152  ARG152     -0.0865
     35  CZ         8.2320    0.7460   27.9300 C.cat 152  ARG152      0.5346
     36  NH1        7.8970    0.7770   29.2050 N.pl3 152  ARG152      0.1354
     37  NH2        9.4720    0.3600   27.6590 N.pl3 152  ARG152      0.1354
     38  N          2.7040   -9.6490   29.0720 N.3   171  PHE171     -0.1241
     39  CA         2.8630  -11.1130   28.8720 C.3   171  PHE171      0.1605
     40  C          2.5100  -11.7780   30.1690 C.2   171  PHE171      0.2264
     41  O          2.7570  -11.2170   31.2650 O.2   171  PHE171     -0.2867
     42  CB         4.3300  -11.5390   28.5950 C.3   171  PHE171      0.0534
     43  CG         4.8170  -11.0120   27.2790 C.ar  171  PHE171     -0.0203
     44  CD1        4.6570  -11.7500   26.1400 C.ar  171  PHE171     -0.0042
     45  CD2        5.3300   -9.7370   27.1760 C.ar  171  PHE171     -0.0042
     46  CE1        5.0600  -11.2840   24.9010 C.ar  171  PHE171     -0.0003
     47  CE2        5.7240   -9.2520   25.9110 C.ar  171  PHE171     -0.0003
     48  CZ         5.5770  -10.0010   24.7850 C.ar  171  PHE171     -0.0000
     49  N         15.4160   -7.1590   33.3670 N.3   184  VAL184     -0.1245
     50  CA        14.5420   -5.9820   33.2110 C.3   184  VAL184      0.1561
     51  C         14.8790   -5.0050   34.4100 C.2   184  VAL184      0.2260
     52  O         14.4510   -3.8250   34.3610 O.2   184  VAL184     -0.2867
     53  CB        13.0420   -6.5250   33.3320 C.3   184  VAL184      0.0252
     54  CG1       12.0270   -5.4390   33.4860 C.3   184  VAL184      0.0019
     55  CG2       12.7470   -7.3480   32.0100 C.3   184  VAL184      0.0019
     56  N         11.4050   -4.1350   39.9250 N.3   187  ASN187     -0.1225
     57  CA        10.6410   -5.0550   40.7660 C.3   187  ASN187      0.1785
     58  C         10.0530   -6.2440   40.0180 C.2   187  ASN187      0.2597
     59  O          9.3340   -6.9870   40.6100 O.2   187  ASN187     -0.2718
     60  CB         9.5120   -4.2240   41.4520 C.3   187  ASN187      0.1169
     61  CG         8.6570   -5.0190   42.4580 C.2   187  ASN187      0.2627
     62  OD1        9.1590   -5.7120   43.3740 O.2   187  ASN187     -0.2716
     63  ND2        7.3310   -4.9000   42.2930 N.am  187  ASN187     -0.0877
     64  N         10.3300   -6.4190   38.7310 N.am  188  SER188     -0.1952
     65  CA         9.6470   -7.4670   37.9540 C.3   188  SER188      0.1924
     66  C          9.8950   -8.8780   38.4970 C.2   188  SER188      0.2314
     67  O          8.9840   -9.7080   38.6280 O.2   188  SER188     -0.2863
     68  CB        10.1630   -7.4060   36.5370 C.3   188  SER188      0.2116
     69  OG         9.3650   -8.2410   35.7860 O.3   188  SER188     -0.2180
     70  N          1.2820   -8.6170   37.1850 N.3   208  ASP208     -0.1239
     71  CA         1.0860   -7.2580   37.8060 C.3   208  ASP208      0.1674
     72  C         -0.4030   -7.0880   38.0140 C.2   208  ASP208      0.2266
     73  O         -1.0830   -6.6090   37.1380 O.2   208  ASP208     -0.2867
     74  CB         1.6510   -6.1670   36.9150 C.3   208  ASP208      0.1410
     75  CG         1.5120   -4.7970   37.4380 C.2   208  ASP208      0.3668
     76  OD1        0.8220   -4.6380   38.5070 O.co2 208  ASP208     -0.2456
     77  OD2        2.0430   -3.8440   36.8650 O.co2 208  ASP208     -0.2456
     78  N         11.8130  -12.3630   28.1320 N.3   255  THR255     -0.1218
     79  CA        12.2160  -12.4230   29.5180 C.3   255  THR255      0.1862
     80  C         11.5280  -13.5130   30.3330 C.2   255  THR255      0.2287
     81  O         12.0430  -13.8560   31.4270 O.2   255  THR255     -0.2866
     82  CB        11.9390  -11.0570   30.2950 C.3   255  THR255      0.1770
     83  OG1       10.5910  -10.7750   30.3520 O.3   255  THR255     -0.2211
     84  CG2       12.6340   -9.9280   29.4470 C.3   255  THR255      0.0375
     85  N         15.0830    1.9380   26.7940 N.3   477  GLU477     -0.1301
     86  CA        16.2690    1.1970   27.1350 C.3   477  GLU477      0.1252
     87  C         17.2600    1.4470   26.0570 C.3   477  GLU477      0.2009
     88  O         16.8930    1.7310   24.8430 O.3   477  GLU477     -0.2188
     89  CB        15.9700   -0.2800   27.2880 C.3   477  GLU477      0.0335
     90  CG        15.6580   -0.9410   26.0120 C.3   477  GLU477      0.1156
     91  CD        15.7590   -2.5120   26.1030 C.2   477  GLU477      0.3649
     92  OE1       16.8200   -3.0950   26.5150 O.co2 477  GLU477     -0.2457
     93  OE2       14.8010   -3.1500   25.6410 O.co2 477  GLU477     -0.2457
     94  N          4.8280   -5.1910   16.8540 N.3   549  TRP549     -0.1241
     95  CA         5.3160   -5.0500   18.2210 C.3   549  TRP549      0.1605
     96  C          5.8410   -3.6000   18.2700 C.2   549  TRP549      0.2264
     97  O          6.6930   -3.2320   17.4870 O.2   549  TRP549     -0.2867
     98  CB         6.5250   -5.9980   18.5680 C.3   549  TRP549      0.0550
     99  CG         7.1150   -5.6600   19.9280 C.ar  549  TRP549      0.0003
    100  CD1        8.1350   -4.6980   20.1750 C.ar  549  TRP549      0.0946
    101  CD2        6.7530   -6.1610   21.2200 C.ar  549  TRP549      0.0152
    102  NE1        8.3320   -4.5770   21.5240 N.ar  549  TRP549     -0.2442
    103  CE2        7.5030   -5.4310   22.1840 C.ar  549  TRP549      0.0810
    104  CE3        5.7860   -7.0680   21.6740 C.ar  549  TRP549      0.0012
    105  CZ2        7.4130   -5.7090   23.5850 C.ar  549  TRP549      0.0191
    106  CZ3        5.7240   -7.2940   23.0250 C.ar  549  TRP549      0.0001
    107  CH2        6.5070   -6.5980   23.9410 C.ar  549  TRP549      0.0015
@<TRIPOS>BOND
     1    94    95    1
     2    97    96    2
     3    95    96    1
     4    95    98    1
     5    98    99    1
     6    99   100   ar
     7    99   101   ar
     8   100   102   ar
     9   101   104   ar
    10   101   103   ar
    11   102   103   ar
    12   104   106   ar
    13   103   105   ar
    14   106   107   ar
    15   105   107   ar
    16    48    46   ar
    17    48    47   ar
    18    88    87    1
    19    46    44   ar
    20    93    91   ar
    21    47    45   ar
    22    90    91    1
    23    90    89    1
    24    87    86    1
    25    91    92   ar
    26    44    43   ar
    27    85    86    1
    28    34    33    1
    29    34    35    2
    30    86    89    1
    31    33    32    1
    32    45    43   ar
    33    43    42    1
    34    30    29    2
    35    32    31    1
    36    37    35    1
    37    31    28    1
    38    35    36    1
    39    12    14   ar
    40    12    10   ar
    41    78    79    1
    42    29    28    1
    43    14    13   ar
    44    28    27    1
    45    42    39    1
    46    39    38    1
    47    39    40    1
    48     9    10   ar
    49     9     7   ar
    50    10     8   ar
    51    84    82    1
    52    79    82    1
    53    79    80    1
    54    13    11   ar
    55     7     6   ar
    56     8    11   ar
    57     8     6   ar
    58    40    41    2
    59    82    83    1
    60    80    81    2
    61     6     5    1
    62     3     4    2
    63     3     2    1
    64     1     2    1
    65     2     5    1
    66    55    53    1
    67    18    17    2
    68    15    16    1
    69    17    16    1
    70    50    53    1
    71    50    49    1
    72    50    51    1
    73    53    54    1
    74    16    19    1
    75    19    20    1
    76    52    51    2
    77    22    20   ar
    78    22    24   ar
    79    20    21   ar
    80    24    25   ar
    81    69    68    1
    82    21    23   ar
    83    68    65    1
    84    25    23   ar
    85    25    26    1
    86    77    75   ar
    87    74    75    1
    88    74    71    1
    89    73    72    2
    90    70    71    1
    91    75    76   ar
    92    71    72    1
    93    65    66    1
    94    65    64    1
    95    66    67    2
    96    64    58   am
    97    56    57    1
    98    58    59    2
    99    58    57    1
   100    57    60    1
   101    60    61    1
   102    63    61   am
   103    61    62    2
