@<TRIPOS>MOLECULE
tmp/3aryA00.pdb
 119 116 0 0 0
SMALL
GASTEIGER

@<TRIPOS>ATOM
      1  N          2.6230   -3.3680   31.1580 N.3   147  TRP147     -0.1241
      2  CA         3.3470   -2.3040   31.8200 C.3   147  TRP147      0.1605
      3  C          3.3080   -0.9700   31.0670 C.2   147  TRP147      0.2264
      4  O          3.9080    0.0540   31.5160 O.2   147  TRP147     -0.2867
      5  CB         4.7790   -2.7370   32.0800 C.3   147  TRP147      0.0550
      6  CG         5.5250   -3.0110   30.7940 C.ar  147  TRP147      0.0003
      7  CD1        6.2530   -2.1430   30.0340 C.ar  147  TRP147      0.0946
      8  CD2        5.6500   -4.3250   30.1600 C.ar  147  TRP147      0.0152
      9  NE1        6.7580   -2.7840   28.8910 N.ar  147  TRP147     -0.2442
     10  CE2        6.4180   -4.1230   28.9780 C.ar  147  TRP147      0.0810
     11  CE3        5.0930   -5.5800   30.4370 C.ar  147  TRP147      0.0012
     12  CZ2        6.7470   -5.1620   28.1110 C.ar  147  TRP147      0.0191
     13  CZ3        5.3760   -6.5970   29.5330 C.ar  147  TRP147      0.0001
     14  CH2        6.1900   -6.3950   28.4160 C.ar  147  TRP147      0.0015
     15  N         15.4160   -7.1590   33.3670 N.3   184  VAL184     -0.1245
     16  CA        14.5420   -5.9820   33.2110 C.3   184  VAL184      0.1561
     17  C         14.8790   -5.0050   34.4100 C.2   184  VAL184      0.2260
     18  O         14.4510   -3.8250   34.3610 O.2   184  VAL184     -0.2867
     19  CB        13.0420   -6.5250   33.3320 C.3   184  VAL184      0.0252
     20  CG1       12.0270   -5.4390   33.4860 C.3   184  VAL184      0.0019
     21  CG2       12.7470   -7.3480   32.0100 C.3   184  VAL184      0.0019
     22  N         10.5360  -12.6620   25.5590 N.3   254  TRP254     -0.1227
     23  CA        12.0120  -12.6910   25.7350 C.3   254  TRP254      0.1737
     24  C         12.4370  -13.0090   27.1810 C.2   254  TRP254      0.2596
     25  O         13.3640  -13.7550   27.3660 O.2   254  TRP254     -0.2718
     26  CB        12.6020  -11.3390   25.2170 C.3   254  TRP254      0.0564
     27  CG        14.1160  -11.2740   25.3460 C.ar  254  TRP254      0.0003
     28  CD1       14.8550  -10.6340   26.3100 C.ar  254  TRP254      0.0946
     29  CD2       15.0420  -11.8910   24.4650 C.ar  254  TRP254      0.0152
     30  NE1       16.2330  -10.8000   26.0570 N.ar  254  TRP254     -0.2442
     31  CE2       16.3490  -11.5850   24.9460 C.ar  254  TRP254      0.0810
     32  CE3       14.9380  -12.6550   23.3270 C.ar  254  TRP254      0.0012
     33  CZ2       17.4990  -12.0550   24.2850 C.ar  254  TRP254      0.0191
     34  CZ3       16.1070  -13.0940   22.6780 C.ar  254  TRP254      0.0001
     35  CH2       17.3390  -12.7640   23.1710 C.ar  254  TRP254      0.0015
     36  N         11.8130  -12.3630   28.1320 N.am  255  THR255     -0.1953
     37  CA        12.2160  -12.4230   29.5180 C.3   255  THR255      0.1897
     38  C         11.5280  -13.5130   30.3330 C.2   255  THR255      0.2313
     39  O         12.0430  -13.8560   31.4270 O.2   255  THR255     -0.2863
     40  CB        11.9390  -11.0570   30.2950 C.3   255  THR255      0.1794
     41  OG1       10.5910  -10.7750   30.3520 O.3   255  THR255     -0.2208
     42  CG2       12.6340   -9.9280   29.4470 C.3   255  THR255      0.0378
     43  N         10.7500  -18.2540   23.4610 N.3   294  GLU294     -0.1245
     44  CA        11.9710  -17.6670   22.7760 C.3   294  GLU294      0.1567
     45  C         13.2170  -18.2800   23.4140 C.2   294  GLU294      0.2260
     46  O         13.7190  -17.8060   24.4260 O.2   294  GLU294     -0.2867
     47  CB        11.9420  -16.1060   22.8970 C.3   294  GLU294      0.0388
     48  CG        10.6960  -15.5770   22.2970 C.3   294  GLU294      0.1160
     49  CD        10.6300  -14.0850   22.2580 C.2   294  GLU294      0.3649
     50  OE1       11.6950  -13.4590   22.2910 O.co2 294  GLU294     -0.2457
     51  OE2        9.4830  -13.5560   22.1440 O.co2 294  GLU294     -0.2457
     52  N         19.2130  -19.7160   22.4030 N.3   299  GLY299     -0.1225
     53  CA        19.5300  -18.4430   21.7110 C.3   299  GLY299      0.1811
     54  C         18.6270  -17.3430   22.1920 C.2   299  GLY299      0.2280
     55  O         18.6410  -16.2500   21.5300 O.2   299  GLY299     -0.2866
     56  N          8.3630  -13.6530   13.8420 N.3   368  MET368     -0.1245
     57  CA         9.0860  -12.4640   14.4630 C.3   368  MET368      0.1570
     58  C         10.0880  -11.8820   13.4620 C.2   368  MET368      0.2261
     59  O         11.2950  -12.0560   13.6750 O.2   368  MET368     -0.2867
     60  CB         9.8120  -12.9110   15.7450 C.3   368  MET368      0.0387
     61  CG         8.8170  -13.1520   16.8600 C.3   368  MET368      0.0595
     62  SD         9.4820  -14.1590   18.2430 S.3   368  MET368     -0.1393
     63  CE        10.9170  -13.2810   18.6940 C.3   368  MET368      0.0692
     64  N         14.2220   -7.5960   14.9110 N.3   371  ASP371     -0.1239
     65  CA        15.3670   -7.8840   15.8040 C.3   371  ASP371      0.1674
     66  C         16.4310   -8.7150   15.0620 C.2   371  ASP371      0.2266
     67  O         17.1750   -9.4560   15.7220 O.2   371  ASP371     -0.2867
     68  CB        14.9610   -8.6200   17.0940 C.3   371  ASP371      0.1410
     69  CG        14.0440   -7.8110   17.9360 C.2   371  ASP371      0.3668
     70  OD1       13.9240   -6.5470   17.8000 O.co2 371  ASP371     -0.2456
     71  OD2       13.1540   -8.4640   18.6540 O.co2 371  ASP371     -0.2456
     72  N         22.9170   -5.0330   20.7450 N.3   376  TRP376     -0.1241
     73  CA        23.6590   -6.0130   21.5610 C.3   376  TRP376      0.1605
     74  C         25.0630   -6.2030   21.0370 C.2   376  TRP376      0.2264
     75  O         25.9050   -6.7520   21.8000 O.2   376  TRP376     -0.2867
     76  CB        22.8800   -7.3400   21.5650 C.3   376  TRP376      0.0550
     77  CG        22.4710   -7.7980   20.1830 C.ar  376  TRP376      0.0003
     78  CD1       23.1880   -8.5240   19.3200 C.ar  376  TRP376      0.0946
     79  CD2       21.1640   -7.6350   19.6060 C.ar  376  TRP376      0.0152
     80  NE1       22.4300   -8.7720   18.1830 N.ar  376  TRP376     -0.2442
     81  CE2       21.1790   -8.2410   18.3440 C.ar  376  TRP376      0.0810
     82  CE3       20.0050   -7.0330   20.0480 C.ar  376  TRP376      0.0012
     83  CZ2       20.0480   -8.3170   17.5100 C.ar  376  TRP376      0.0191
     84  CZ3       18.8960   -7.0820   19.2110 C.ar  376  TRP376      0.0001
     85  CH2       18.9450   -7.6810   17.9730 C.ar  376  TRP376      0.0015
     86  N         15.9640   -0.0220   16.2990 N.3   442  ARG442     -0.1245
     87  CA        17.1460   -0.3330   17.0820 C.3   442  ARG442      0.1563
     88  C         18.2780    0.5300   16.5980 C.2   442  ARG442      0.2260
     89  O         18.2750    0.9110   15.3980 O.2   442  ARG442     -0.2867
     90  CB        17.4950   -1.8670   17.0440 C.3   442  ARG442      0.0307
     91  CG        16.4080   -2.6940   17.7360 C.3   442  ARG442      0.0489
     92  CD        16.8620   -4.1730   17.8890 C.3   442  ARG442      0.2205
     93  NE        15.8850   -4.9000   18.6520 N.pl3 442  ARG442     -0.0865
     94  CZ        15.9220   -5.0010   19.9590 C.cat 442  ARG442      0.5346
     95  NH1       16.8430   -4.4250   20.7340 N.pl3 442  ARG442      0.1354
     96  NH2       14.9080   -5.7130   20.5560 N.pl3 442  ARG442      0.1354
     97  N         15.0830    1.9380   26.7940 N.3   477  GLU477     -0.1301
     98  CA        16.2690    1.1970   27.1350 C.3   477  GLU477      0.1252
     99  C         17.2600    1.4470   26.0570 C.3   477  GLU477      0.2009
    100  O         16.8930    1.7310   24.8430 O.3   477  GLU477     -0.2188
    101  CB        15.9700   -0.2800   27.2880 C.3   477  GLU477      0.0335
    102  CG        15.6580   -0.9410   26.0120 C.3   477  GLU477      0.1156
    103  CD        15.7590   -2.5120   26.1030 C.2   477  GLU477      0.3649
    104  OE1       16.8200   -3.0950   26.5150 O.co2 477  GLU477     -0.2457
    105  OE2       14.8010   -3.1500   25.6410 O.co2 477  GLU477     -0.2457
    106  N          4.8280   -5.1910   16.8540 N.3   549  TRP549     -0.1241
    107  CA         5.3160   -5.0500   18.2210 C.3   549  TRP549      0.1605
    108  C          5.8410   -3.6000   18.2700 C.2   549  TRP549      0.2264
    109  O          6.6930   -3.2320   17.4870 O.2   549  TRP549     -0.2867
    110  CB         6.5250   -5.9980   18.5680 C.3   549  TRP549      0.0550
    111  CG         7.1150   -5.6600   19.9280 C.ar  549  TRP549      0.0003
    112  CD1        8.1350   -4.6980   20.1750 C.ar  549  TRP549      0.0946
    113  CD2        6.7530   -6.1610   21.2200 C.ar  549  TRP549      0.0152
    114  NE1        8.3320   -4.5770   21.5240 N.ar  549  TRP549     -0.2442
    115  CE2        7.5030   -5.4310   22.1840 C.ar  549  TRP549      0.0810
    116  CE3        5.7860   -7.0680   21.6740 C.ar  549  TRP549      0.0012
    117  CZ2        7.4130   -5.7090   23.5850 C.ar  549  TRP549      0.0191
    118  CZ3        5.7240   -7.2940   23.0250 C.ar  549  TRP549      0.0001
    119  CH2        6.5070   -6.5980   23.9410 C.ar  549  TRP549      0.0015
@<TRIPOS>BOND
     1    58    59    2
     2    58    57    1
     3    56    57    1
     4    57    60    1
     5    64    65    1
     6    66    67    2
     7    66    65    1
     8    89    88    2
     9    60    61    1
    10    65    68    1
    11    86    87    1
    12    88    87    1
    13   106   107    1
    14    61    62    1
    15    90    87    1
    16    90    91    1
    17    68    69    1
    18   109   108    2
    19    83    85   ar
    20    83    81   ar
    21    91    92    1
    22    70    69   ar
    23    92    93    1
    24    69    71   ar
    25    85    84   ar
    26    80    81   ar
    27    80    78   ar
    28   107   108    1
    29   107   110    1
    30    62    63    1
    31    81    79   ar
    32   110   111    1
    33    93    94    2
    34    84    82   ar
    35    78    77   ar
    36    79    82   ar
    37    79    77   ar
    38   111   112   ar
    39   111   113   ar
    40    94    96    1
    41    94    95    1
    42   112   114   ar
    43    77    76    1
    44    72    73    1
    45    74    73    1
    46    74    75    2
    47   113   116   ar
    48   113   115   ar
    49   114   115   ar
    50    55    54    2
    51    73    76    1
    52   116   118   ar
    53    53    54    1
    54    53    52    1
    55    51    49   ar
    56   115   117   ar
    57    49    50   ar
    58    49    48    1
    59    48    47    1
    60    34    35   ar
    61    34    32   ar
    62    44    47    1
    63    44    45    1
    64    44    43    1
    65   118   119   ar
    66    35    33   ar
    67    32    29   ar
    68    45    46    2
    69   117   119   ar
    70    33    31   ar
    71    29    31   ar
    72    29    27   ar
    73   100    99    1
    74    31    30   ar
    75    26    27    1
    76    26    23    1
    77    27    28   ar
    78    22    23    1
    79   105   103   ar
    80    23    24    1
    81   102   103    1
    82   102   101    1
    83    99    98    1
    84    30    28   ar
    85   103   104   ar
    86    97    98    1
    87    98   101    1
    88    24    25    2
    89    24    36   am
    90    12    14   ar
    91    12    10   ar
    92    36    37    1
    93    14    13   ar
    94     9    10   ar
    95     9     7   ar
    96    10     8   ar
    97    42    40    1
    98    37    40    1
    99    37    38    1
   100    13    11   ar
   101     7     6   ar
   102     8    11   ar
   103     8     6   ar
   104    40    41    1
   105    38    39    2
   106     6     5    1
   107     3     4    2
   108     3     2    1
   109     1     2    1
   110     2     5    1
   111    21    19    1
   112    16    19    1
   113    16    15    1
   114    16    17    1
   115    19    20    1
   116    18    17    2
