@<TRIPOS>MOLECULE
tmp/3as1A01.pdb
 71 66 0 0 0
SMALL
GASTEIGER

@<TRIPOS>ATOM
      1  N          1.4040    5.0120   34.1790 N.3   183  SER183     -0.1202
      2  CA         0.2080    4.4210   33.5280 C.3   183  SER183      0.2020
      3  C          0.5150    3.2520   32.7130 C.2   183  SER183      0.2618
      4  O         -0.3860    2.4720   32.4150 O.2   183  SER183     -0.2717
      5  CB        -0.5550    5.4690   32.6710 C.3   183  SER183      0.2103
      6  OG        -1.0320    6.4490   33.5770 O.3   183  SER183     -0.2182
      7  N          1.7810    3.0690   32.3620 N.am  184  VAL184     -0.1979
      8  CA         2.1640    1.9130   31.5510 C.3   184  VAL184      0.1595
      9  C          2.2340    0.6320   32.3980 C.2   184  VAL184      0.2287
     10  O          2.3140   -0.4850   31.8660 O.2   184  VAL184     -0.2864
     11  CB         3.4980    2.2610   30.7940 C.3   184  VAL184      0.0276
     12  CG1        4.6180    1.2520   30.9420 C.3   184  VAL184      0.0022
     13  CG2        3.2210    2.7730   29.3610 C.3   184  VAL184      0.0022
     14  N          6.9680    8.5550   23.4860 N.3   254  GLY254     -0.1210
     15  CA         5.5450    8.6640   23.8280 C.3   254  GLY254      0.1956
     16  C          5.2760    8.6820   25.3380 C.2   254  GLY254      0.2612
     17  O          4.5140    9.5390   25.8550 O.2   254  GLY254     -0.2717
     18  N          5.8700    7.7610   26.0750 N.am  255  THR255     -0.1952
     19  CA         5.5560    7.7450   27.5030 C.3   255  THR255      0.1897
     20  C          6.4440    8.6030   28.4370 C.2   255  THR255      0.2313
     21  O          6.0550    8.8830   29.5740 O.2   255  THR255     -0.2863
     22  CB         5.3050    6.3340   28.0420 C.3   255  THR255      0.1794
     23  OG1        6.4290    5.8690   28.7410 O.3   255  THR255     -0.2208
     24  CG2        4.9770    5.3320   26.9430 C.3   255  THR255      0.0378
     25  N          6.6320   14.2000   22.4820 N.3   294  GLU294     -0.1231
     26  CA         5.3520   13.7850   21.9130 C.3   294  GLU294      0.1699
     27  C          4.2590   14.2890   22.8350 C.2   294  GLU294      0.2592
     28  O          3.8760   13.5540   23.7280 O.2   294  GLU294     -0.2718
     29  CB         5.2600   12.2370   21.7810 C.3   294  GLU294      0.0402
     30  CG         6.1680   11.7000   20.6640 C.3   294  GLU294      0.1161
     31  CD         6.1740   10.1870   20.5170 C.2   294  GLU294      0.3649
     32  OE1        5.1020    9.5470   20.6070 O.co2 294  GLU294     -0.2457
     33  OE2        7.2690    9.6440   20.2790 O.co2 294  GLU294     -0.2457
     34  N          3.7320   15.5190   22.6430 N.am  295  PHE295     -0.1976
     35  CA         3.9450   16.4120   21.4480 C.3   295  PHE295      0.1639
     36  C          3.7360   17.8610   21.9500 C.2   295  PHE295      0.2290
     37  O          2.8770   18.0930   22.8310 O.2   295  PHE295     -0.2864
     38  CB         2.8810   16.2090   20.3120 C.3   295  PHE295      0.0560
     39  CG         2.7110   14.7690   19.8330 C.ar  295  PHE295     -0.0200
     40  CD1        3.4300   14.2970   18.7170 C.ar  295  PHE295     -0.0042
     41  CD2        1.8340   13.8910   20.4950 C.ar  295  PHE295     -0.0042
     42  CE1        3.2580   12.9890   18.2570 C.ar  295  PHE295     -0.0003
     43  CE2        1.6680   12.5580   20.0710 C.ar  295  PHE295     -0.0003
     44  CZ         2.3520   12.1030   18.9360 C.ar  295  PHE295     -0.0000
     45  N         -2.0890   16.3500   23.0200 N.3   299  GLY299     -0.1210
     46  CA        -2.5870   15.2550   22.2170 C.3   299  GLY299      0.1956
     47  C         -1.7670   13.9790   22.2710 C.2   299  GLY299      0.2612
     48  O         -1.9460   13.1360   21.3930 O.2   299  GLY299     -0.2717
     49  N         -0.8900   13.8100   23.2830 N.am  300  GLY300     -0.1942
     50  CA        -0.1210   12.5900   23.4570 C.3   300  GLY300      0.2014
     51  C         -0.5870   11.8040   24.6930 C.2   300  GLY300      0.2638
     52  O         -1.7520   11.9030   25.0710 O.2   300  GLY300     -0.2714
     53  N          0.3260   11.0860   25.3580 N.am  301  ALA301     -0.1977
     54  CA        -0.0210   10.2350   26.5170 C.3   301  ALA301      0.1597
     55  C         -0.5480   10.9900   27.7310 C.2   301  ALA301      0.2287
     56  O         -1.2670   10.4430   28.5320 O.2   301  ALA301     -0.2864
     57  CB         1.1820    9.3750   26.9360 C.3   301  ALA301      0.0319
     58  N         -2.9910   13.2540   29.0380 N.3   303  ALA303     -0.1245
     59  CA        -4.3060   13.8700   28.7100 C.3   303  ALA303      0.1562
     60  C         -4.4930   15.2820   29.2560 C.2   303  ALA303      0.2260
     61  O         -5.1520   16.1040   28.6530 O.2   303  ALA303     -0.2867
     62  CB        -5.4900   12.9460   29.1670 C.3   303  ALA303      0.0290
     63  N         -0.7900   18.2930   14.9200 N.3   349  LYS349     -0.1301
     64  CA         0.5600   18.3610   15.5820 C.3   349  LYS349      0.1247
     65  C          1.4390   19.4420   14.9250 C.3   349  LYS349      0.2009
     66  O          2.0590   20.3590   15.5860 O.3   349  LYS349     -0.2188
     67  CB         1.2670   16.9650   15.5470 C.3   349  LYS349      0.0218
     68  CG         0.3810   15.7560   16.0550 C.3   349  LYS349      0.0031
     69  CD        -0.0240   16.0190   17.4920 C.3   349  LYS349      0.0205
     70  CE        -0.7880   14.8420   18.1740 C.3   349  LYS349      0.1093
     71  NZ        -2.0710   14.4640   17.4760 N.3   349  LYS349     -0.1314
@<TRIPOS>BOND
     1    63    64    1
     2    65    64    1
     3    65    66    1
     4    67    64    1
     5    67    68    1
     6    68    69    1
     7    71    70    1
     8    69    70    1
     9    42    40   ar
    10    42    44   ar
    11    40    39   ar
    12    44    43   ar
    13    39    38    1
    14    39    41   ar
    15    43    41   ar
    16    33    31   ar
    17    38    35    1
    18    31    32   ar
    19    31    30    1
    20    30    29    1
    21    48    47    2
    22    35    36    1
    23    35    34    1
    24    29    26    1
    25    26    25    1
    26    26    27    1
    27    36    37    2
    28    46    47    1
    29    46    45    1
    30    47    49   am
    31    34    27   am
    32    27    28    2
    33    49    50    1
    34    50    51    1
    35    14    15    1
    36    15    16    1
    37    51    52    2
    38    51    53   am
    39    16    17    2
    40    16    18   am
    41    53    54    1
    42    18    19    1
    43    54    57    1
    44    54    55    1
    45    24    22    1
    46    19    22    1
    47    19    20    1
    48    55    56    2
    49    22    23    1
    50    20    21    2
    51    61    60    2
    52    59    58    1
    53    59    62    1
    54    59    60    1
    55    13    11    1
    56    11    12    1
    57    11     8    1
    58     8     7    1
    59     8     9    1
    60    10     9    2
    61     7     3   am
    62     4     3    2
    63     5     2    1
    64     5     6    1
    65     3     2    1
    66     2     1    1
