@<TRIPOS>MOLECULE
tmp/3as1A00.pdb
 90 86 0 0 0
SMALL
GASTEIGER

@<TRIPOS>ATOM
      1  N          6.9680    8.5550   23.4860 N.3   254  GLY254     -0.1225
      2  CA         5.5450    8.6640   23.8280 C.3   254  GLY254      0.1811
      3  C          5.2760    8.6820   25.3380 C.2   254  GLY254      0.2280
      4  O          4.5140    9.5390   25.8550 O.2   254  GLY254     -0.2866
      5  N          6.6320   14.2000   22.4820 N.3   294  GLU294     -0.1231
      6  CA         5.3520   13.7850   21.9130 C.3   294  GLU294      0.1699
      7  C          4.2590   14.2890   22.8350 C.2   294  GLU294      0.2592
      8  O          3.8760   13.5540   23.7280 O.2   294  GLU294     -0.2718
      9  CB         5.2600   12.2370   21.7810 C.3   294  GLU294      0.0402
     10  CG         6.1680   11.7000   20.6640 C.3   294  GLU294      0.1161
     11  CD         6.1740   10.1870   20.5170 C.2   294  GLU294      0.3649
     12  OE1        5.1020    9.5470   20.6070 O.co2 294  GLU294     -0.2457
     13  OE2        7.2690    9.6440   20.2790 O.co2 294  GLU294     -0.2457
     14  N          3.7320   15.5190   22.6430 N.am  295  PHE295     -0.1976
     15  CA         3.9450   16.4120   21.4480 C.3   295  PHE295      0.1639
     16  C          3.7360   17.8610   21.9500 C.2   295  PHE295      0.2290
     17  O          2.8770   18.0930   22.8310 O.2   295  PHE295     -0.2864
     18  CB         2.8810   16.2090   20.3120 C.3   295  PHE295      0.0560
     19  CG         2.7110   14.7690   19.8330 C.ar  295  PHE295     -0.0200
     20  CD1        3.4300   14.2970   18.7170 C.ar  295  PHE295     -0.0042
     21  CD2        1.8340   13.8910   20.4950 C.ar  295  PHE295     -0.0042
     22  CE1        3.2580   12.9890   18.2570 C.ar  295  PHE295     -0.0003
     23  CE2        1.6680   12.5580   20.0710 C.ar  295  PHE295     -0.0003
     24  CZ         2.3520   12.1030   18.9360 C.ar  295  PHE295     -0.0000
     25  N         -2.0890   16.3500   23.0200 N.3   299  GLY299     -0.1225
     26  CA        -2.5870   15.2550   22.2170 C.3   299  GLY299      0.1811
     27  C         -1.7670   13.9790   22.2710 C.2   299  GLY299      0.2280
     28  O         -1.9460   13.1360   21.3930 O.2   299  GLY299     -0.2866
     29  N          1.7690    5.0660   12.8220 N.3   371  ASP371     -0.1239
     30  CA         0.8050    5.2490   13.9190 C.3   371  ASP371      0.1674
     31  C         -0.3710    6.1850   13.5550 C.2   371  ASP371      0.2266
     32  O         -0.9450    6.8040   14.4550 O.2   371  ASP371     -0.2867
     33  CB         1.4830    5.8530   15.1360 C.3   371  ASP371      0.1410
     34  CG         2.5240    4.9660   15.7250 C.2   371  ASP371      0.3668
     35  OD1        2.6430    3.7400   15.3810 O.co2 371  ASP371     -0.2456
     36  OD2        3.2500    5.5260   16.5550 O.co2 371  ASP371     -0.2456
     37  N         -6.0270    1.6540   19.5820 N.3   376  TRP376     -0.1227
     38  CA        -6.6120    2.4770   20.6130 C.3   376  TRP376      0.1737
     39  C         -8.0900    2.8110   20.3160 C.2   376  TRP376      0.2595
     40  O         -8.7890    3.2720   21.2190 O.2   376  TRP376     -0.2718
     41  CB        -5.8360    3.7610   20.7720 C.3   376  TRP376      0.0564
     42  CG        -5.5540    4.4990   19.4340 C.ar  376  TRP376      0.0003
     43  CD1       -6.3920    5.3440   18.7670 C.ar  376  TRP376      0.0946
     44  CD2       -4.3350    4.4390   18.6540 C.ar  376  TRP376      0.0152
     45  NE1       -5.7700    5.8400   17.6080 N.ar  376  TRP376     -0.2442
     46  CE2       -4.5220    5.2750   17.5070 C.ar  376  TRP376      0.0810
     47  CE3       -3.1220    3.7280   18.7880 C.ar  376  TRP376      0.0012
     48  CZ2       -3.5260    5.4610   16.5390 C.ar  376  TRP376      0.0191
     49  CZ3       -2.1130    3.9080   17.7880 C.ar  376  TRP376      0.0001
     50  CH2       -2.3350    4.7650   16.6940 C.ar  376  TRP376      0.0015
     51  N         -8.5620    2.6290   19.0650 N.am  377  ASN377     -0.1974
     52  CA       -10.0100    2.6720   18.8470 C.3   377  ASN377      0.1688
     53  C        -10.4240    1.6020   17.8300 C.2   377  ASN377      0.2292
     54  O         -9.6070    0.7560   17.4160 O.2   377  ASN377     -0.2864
     55  CB       -10.4810    4.0890   18.4880 C.3   377  ASN377      0.1181
     56  CG        -9.8190    4.5950   17.2240 C.2   377  ASN377      0.2629
     57  OD1       -9.5080    3.7810   16.3250 O.2   377  ASN377     -0.2716
     58  ND2       -9.5400    5.9010   17.1620 N.am  377  ASN377     -0.0877
     59  N         -4.7280   11.7450    8.0500 N.3   414  TYR414     -0.1241
     60  CA        -3.3710   11.2580    8.4710 C.3   414  TYR414      0.1605
     61  C         -2.7420   10.3190    7.4260 C.2   414  TYR414      0.2264
     62  O         -3.0780    9.0800    7.3780 O.2   414  TYR414     -0.2867
     63  CB        -3.4540   10.5420    9.8190 C.3   414  TYR414      0.0534
     64  CG        -3.6360   11.4190   11.0460 C.ar  414  TYR414     -0.0201
     65  CD1       -3.8340   12.8130   10.9470 C.ar  414  TYR414     -0.0009
     66  CD2       -3.5800   10.8280   12.3470 C.ar  414  TYR414     -0.0009
     67  CE1       -4.0270   13.6240   12.1010 C.ar  414  TYR414      0.0417
     68  CE2       -3.6990   11.6300   13.5340 C.ar  414  TYR414      0.0417
     69  CZ        -3.9200   13.0120   13.4020 C.ar  414  TYR414      0.1957
     70  OH        -4.0190   13.7500   14.5570 O.3   414  TYR414     -0.2866
     71  N          0.1750   -2.4400   13.2580 N.3   442  ARG442     -0.1245
     72  CA        -0.8330   -2.2950   14.2970 C.3   442  ARG442      0.1563
     73  C         -2.0730   -3.0520   13.8190 C.2   442  ARG442      0.2260
     74  O         -2.2080   -3.2820   12.6020 O.2   442  ARG442     -0.2867
     75  CB        -1.1650   -0.8200   14.5730 C.3   442  ARG442      0.0307
     76  CG        -0.0310   -0.0780   15.2430 C.3   442  ARG442      0.0489
     77  CD        -0.4380    1.3540   15.6410 C.3   442  ARG442      0.2205
     78  NE         0.6790    2.0040   16.3160 N.pl3 442  ARG442     -0.0865
     79  CZ         0.9770    1.8300   17.6210 C.cat 442  ARG442      0.5346
     80  NH1        0.1830    1.0940   18.4220 N.pl3 442  ARG442      0.1354
     81  NH2        2.0390    2.4610   18.1490 N.pl3 442  ARG442      0.1354
     82  N         -8.5490   -4.3460   20.2430 N.3   466  LYS466     -0.1245
     83  CA        -7.1630   -4.3940   19.7420 C.3   466  LYS466      0.1561
     84  C         -6.8110   -5.8030   19.4220 C.2   466  LYS466      0.2260
     85  O         -7.3890   -6.7220   20.0170 O.2   466  LYS466     -0.2867
     86  CB        -6.1520   -3.9210   20.8230 C.3   466  LYS466      0.0271
     87  CG        -6.4230   -2.6070   21.4460 C.3   466  LYS466      0.0035
     88  CD        -5.4870   -2.3720   22.6650 C.3   466  LYS466      0.0206
     89  CE        -5.7900   -1.0640   23.3820 C.3   466  LYS466      0.1093
     90  NZ        -4.8870    0.0310   22.9190 N.3   466  LYS466     -0.1314
@<TRIPOS>BOND
     1    62    61    2
     2    61    60    1
     3    59    60    1
     4    60    63    1
     5    63    64    1
     6    65    64   ar
     7    65    67   ar
     8    64    66   ar
     9    67    69   ar
    10    66    68   ar
    11    74    73    2
    12    29    30    1
    13    71    72    1
    14    69    68   ar
    15    69    70    1
    16    31    30    1
    17    31    32    2
    18    73    72    1
    19    30    33    1
    20    72    75    1
    21    75    76    1
    22    33    34    1
    23    76    77    1
    24    35    34   ar
    25    77    78    1
    26    34    36   ar
    27    78    79    2
    28    57    56    2
    29    48    50   ar
    30    48    46   ar
    31    50    49   ar
    32    58    56   am
    33    56    55    1
    34    54    53    2
    35    46    45   ar
    36    46    44   ar
    37    45    43   ar
    38    79    81    1
    39    79    80    1
    40    49    47   ar
    41    53    52    1
    42    22    20   ar
    43    22    24   ar
    44    55    52    1
    45    44    47   ar
    46    44    42   ar
    47    20    19   ar
    48    43    42   ar
    49    52    51    1
    50    24    23   ar
    51    51    39   am
    52    84    83    1
    53    84    85    2
    54    42    41    1
    55    37    38    1
    56    83    82    1
    57    83    86    1
    58    19    18    1
    59    19    21   ar
    60    23    21   ar
    61    13    11   ar
    62    18    15    1
    63    39    38    1
    64    39    40    2
    65    11    12   ar
    66    11    10    1
    67    38    41    1
    68    10     9    1
    69    86    87    1
    70    28    27    2
    71    87    88    1
    72    15    16    1
    73    15    14    1
    74     9     6    1
    75     6     5    1
    76     6     7    1
    77    16    17    2
    78    26    27    1
    79    26    25    1
    80    14     7   am
    81    88    89    1
    82     7     8    2
    83    90    89    1
    84     1     2    1
    85     2     3    1
    86     3     4    2
