@<TRIPOS>MOLECULE
tmp/3asbA00.pdb
 172 166 0 0 0
SMALL
GASTEIGER

@<TRIPOS>ATOM
      1  N          3.1340   31.4630   20.8580 N.3    85  GLY85      -0.1210
      2  CA         3.0970   31.4350   19.4190 C.3    85  GLY85       0.1956
      3  C          1.8080   31.9990   18.9630 C.2    85  GLY85       0.2612
      4  O          0.8390   32.0330   19.7400 O.2    85  GLY85      -0.2717
      5  N          1.7850   32.4380   17.7020 N.am   86  ALA86      -0.1965
      6  CA         0.5760   33.0240   17.0720 C.3    86  ALA86       0.1728
      7  C         -0.6710   32.1310   17.0910 C.2    86  ALA86       0.2616
      8  O         -1.7690   32.6260   17.2810 O.2    86  ALA86      -0.2715
      9  CB         0.8750   33.5070   15.6500 C.3    86  ALA86       0.0334
     10  N         -0.4930   30.8220   16.9160 N.am   87  LYS87      -0.1963
     11  CA        -1.6180   29.9090   16.8330 C.3    87  LYS87       0.1728
     12  C         -2.2810   29.7420   18.1820 C.2    87  LYS87       0.2616
     13  O         -3.4990   29.8520   18.3090 O.2    87  LYS87      -0.2715
     14  CB        -1.1730   28.5280   16.3430 C.3    87  LYS87       0.0311
     15  CG        -2.3310   27.4600   16.4300 C.3    87  LYS87       0.0038
     16  CD        -1.8820   26.0670   16.3020 C.3    87  LYS87       0.0206
     17  CE        -1.6220   25.7120   14.8760 C.3    87  LYS87       0.1093
     18  NZ        -1.1800   24.2590   14.8630 N.3    87  LYS87      -0.1314
     19  N         -1.4920   29.4460   19.1950 N.am   88  VAL88      -0.1977
     20  CA        -2.0550   29.3420   20.5280 C.3    88  VAL88       0.1596
     21  C         -2.7560   30.6570   20.8590 C.2    88  VAL88       0.2287
     22  O         -3.7640   30.6630   21.5640 O.2    88  VAL88      -0.2864
     23  CB        -0.9780   29.0690   21.5770 C.3    88  VAL88       0.0276
     24  CG1       -1.5690   28.3360   22.7040 C.3    88  VAL88       0.0022
     25  CG2        0.1880   28.2410   20.9610 C.3    88  VAL88       0.0022
     26  N         -6.7300   30.2940    5.3190 N.3   110  TYR110     -0.1241
     27  CA        -5.8270   29.5250    6.1130 C.3   110  TYR110      0.1605
     28  C         -6.6440   28.7270    7.1190 C.2   110  TYR110      0.2264
     29  O         -7.3030   29.2900    8.0010 O.2   110  TYR110     -0.2867
     30  CB        -4.9030   30.4650    6.8250 C.3   110  TYR110      0.0534
     31  CG        -4.0170   29.8300    7.8580 C.ar  110  TYR110     -0.0201
     32  CD1       -3.3050   28.6720    7.5880 C.ar  110  TYR110     -0.0009
     33  CD2       -3.8400   30.4580    9.0970 C.ar  110  TYR110     -0.0009
     34  CE1       -2.4670   28.1400    8.5400 C.ar  110  TYR110      0.0417
     35  CE2       -3.0120   29.9490   10.0580 C.ar  110  TYR110      0.0417
     36  CZ        -2.3230   28.7930    9.7840 C.ar  110  TYR110      0.1957
     37  OH        -1.4830   28.3040   10.7730 O.3   110  TYR110     -0.2866
     38  N         -7.8880   28.8630   11.0230 N.3   113  TYR113     -0.1241
     39  CA        -8.9110   29.7570   11.4750 C.3   113  TYR113      0.1605
     40  C        -10.2290   29.0030   11.5800 C.2   113  TYR113      0.2264
     41  O        -10.8420   28.9830   12.6540 O.2   113  TYR113     -0.2867
     42  CB        -9.0530   30.9890   10.5780 C.3   113  TYR113      0.0534
     43  CG        -7.8140   31.8530   10.3720 C.ar  113  TYR113     -0.0201
     44  CD1       -6.7990   31.9650   11.3320 C.ar  113  TYR113     -0.0009
     45  CD2       -7.6860   32.5990    9.1970 C.ar  113  TYR113     -0.0009
     46  CE1       -5.6550   32.7870   11.0930 C.ar  113  TYR113      0.0417
     47  CE2       -6.5700   33.4370    8.9470 C.ar  113  TYR113      0.0417
     48  CZ        -5.5620   33.5260    9.8840 C.ar  113  TYR113      0.1957
     49  OH        -4.4940   34.3560    9.5610 O.3   113  TYR113     -0.2866
     50  N         -5.6500   38.0460    7.4310 N.3   152  CYS152     -0.1235
     51  CA        -4.4300   37.4140    7.3330 C.3   152  CYS152      0.1677
     52  C         -3.7250   38.1850    6.2630 C.2   152  CYS152      0.2270
     53  O         -4.0350   38.0730    5.1030 O.2   152  CYS152     -0.2867
     54  CB        -4.6990   35.9910    6.8950 C.3   152  CYS152      0.0956
     55  SG        -3.1580   35.0960    6.8700 S.3   152  CYS152     -0.0801
     56  N         -1.8800   34.0870    3.5850 N.3   156  ASN156     -0.1240
     57  CA        -1.7570   32.6720    3.2480 C.3   156  ASN156      0.1653
     58  C         -3.1850   32.1690    2.9740 C.2   156  ASN156      0.2266
     59  O         -3.9920   31.9920    3.8910 O.2   156  ASN156     -0.2867
     60  CB        -1.0710   31.9320    4.3920 C.3   156  ASN156      0.1155
     61  CG        -1.0020   30.4030    4.1780 C.2   156  ASN156      0.2627
     62  OD1       -1.1700   29.9130    3.0600 O.2   156  ASN156     -0.2716
     63  ND2       -0.7820   29.6540    5.2710 N.am  156  ASN156     -0.0877
     64  N         -3.9140   39.0570   11.4900 N.3   184  ASP184     -0.1239
     65  CA        -2.7480   38.1820   11.6190 C.3   184  ASP184      0.1674
     66  C         -1.6340   38.5980   10.7080 C.2   184  ASP184      0.2266
     67  O         -1.7600   38.4740    9.4670 O.2   184  ASP184     -0.2867
     68  CB        -3.0950   36.7370   11.2590 C.3   184  ASP184      0.1410
     69  CG        -1.9280   35.7690   11.4970 C.2   184  ASP184      0.3668
     70  OD1       -0.7210   36.1260   11.3270 O.co2 184  ASP184     -0.2456
     71  OD2       -2.2390   34.6340   11.8700 O.co2 184  ASP184     -0.2456
     72  N          1.6640   37.6080   10.9120 N.3   186  ALA186     -0.1231
     73  CA         2.8390   36.7330   11.0320 C.3   186  ALA186      0.1694
     74  C          3.8290   36.7640    9.8420 C.2   186  ALA186      0.2592
     75  O          5.0310   36.5160   10.0350 O.2   186  ALA186     -0.2718
     76  CB         2.4320   35.3020   11.3770 C.3   186  ALA186      0.0304
     77  N          3.3450   37.0930    8.6520 N.am  187  TYR187     -0.1976
     78  CA         4.2170   37.2330    7.4700 C.3   187  TYR187      0.1639
     79  C          4.6830   38.6510    7.2080 C.2   187  TYR187      0.2290
     80  O          5.2600   38.8930    6.1640 O.2   187  TYR187     -0.2864
     81  CB         3.5540   36.6570    6.1530 C.3   187  TYR187      0.0560
     82  CG         3.2890   35.1420    6.2440 C.ar  187  TYR187     -0.0198
     83  CD1        4.3300   34.2090    6.1400 C.ar  187  TYR187     -0.0009
     84  CD2        2.0120   34.6580    6.5130 C.ar  187  TYR187     -0.0009
     85  CE1        4.0780   32.8480    6.2880 C.ar  187  TYR187      0.0417
     86  CE2        1.7640   33.3260    6.6620 C.ar  187  TYR187      0.0417
     87  CZ         2.7900   32.4220    6.5390 C.ar  187  TYR187      0.1957
     88  OH         2.4980   31.0840    6.6940 O.3   187  TYR187     -0.2866
     89  N          7.0450   40.6780    8.1840 N.3   189  THR189     -0.1203
     90  CA         8.4570   40.7700    7.8770 C.3   189  THR189      0.1994
     91  C          8.8630   40.4970    6.4500 C.2   189  THR189      0.2617
     92  O          9.9910   40.8610    6.0620 O.2   189  THR189     -0.2717
     93  CB         9.2120   39.7620    8.6900 C.3   189  THR189      0.1784
     94  OG1        9.1040   40.1530   10.0550 O.3   189  THR189     -0.2211
     95  CG2       10.6560   39.7360    8.3070 C.3   189  THR189      0.0376
     96  N          7.9930   39.8470    5.6780 N.am  190  PHE190     -0.1975
     97  CA         8.3350   39.5450    4.3030 C.3   190  PHE190      0.1639
     98  C          7.9900   40.6590    3.3990 C.2   190  PHE190      0.2290
     99  O          8.3200   40.5840    2.2090 O.2   190  PHE190     -0.2864
    100  CB         7.5930   38.3160    3.7820 C.3   190  PHE190      0.0560
    101  CG         8.0720   37.0170    4.3710 C.ar  190  PHE190     -0.0200
    102  CD1        7.6380   36.6070    5.5980 C.ar  190  PHE190     -0.0042
    103  CD2        8.9490   36.2140    3.6740 C.ar  190  PHE190     -0.0042
    104  CE1        8.0640   35.4360    6.1160 C.ar  190  PHE190     -0.0003
    105  CE2        9.3750   35.0210    4.1970 C.ar  190  PHE190     -0.0003
    106  CZ         8.9370   34.6320    5.4140 C.ar  190  PHE190     -0.0000
    107  N          4.2290   36.6340   15.1980 N.3   215  SER215     -0.1202
    108  CA         5.2900   35.7890   15.8110 C.3   215  SER215      0.2020
    109  C          6.6050   35.9170   15.0960 C.2   215  SER215      0.2619
    110  O          6.6980   36.5480   14.0390 O.2   215  SER215     -0.2717
    111  CB         4.8980   34.2860   15.8320 C.3   215  SER215      0.2103
    112  OG         4.7270   33.8170   14.4950 O.3   215  SER215     -0.2182
    113  N          7.6190   35.3070   15.6950 N.am  216  PHE216     -0.1961
    114  CA         8.8640   35.0460   14.9510 C.3   216  PHE216      0.1771
    115  C          8.7060   33.8260   14.0320 C.2   216  PHE216      0.2620
    116  O          8.4250   33.9780   12.8430 O.2   216  PHE216     -0.2715
    117  CB        10.0610   34.8680   15.8750 C.3   216  PHE216      0.0574
    118  CG        10.4180   36.0970   16.6580 C.ar  216  PHE216     -0.0200
    119  CD1       11.0610   37.1780   16.0440 C.ar  216  PHE216     -0.0042
    120  CD2       10.1330   36.1770   18.0060 C.ar  216  PHE216     -0.0042
    121  CE1       11.4120   38.3190   16.7620 C.ar  216  PHE216     -0.0003
    122  CE2       10.4820   37.3230   18.7380 C.ar  216  PHE216     -0.0003
    123  CZ        11.1230   38.3960   18.1100 C.ar  216  PHE216     -0.0000
    124  N          8.8610   32.6270   14.5940 N.am  217  SER217     -0.1950
    125  CA         8.8360   31.3530   13.8400 C.3   217  SER217      0.1924
    126  C          9.2640   31.4170   12.3200 C.2   217  SER217      0.2314
    127  O         10.3280   30.8730   11.9180 O.2   217  SER217     -0.2863
    128  CB         7.4810   30.6500   14.0690 C.3   217  SER217      0.2116
    129  OG         6.3780   31.4940   13.7510 O.3   217  SER217     -0.2180
    130  N         10.3650   34.1460   10.1600 N.3   218  PRO218     -0.2102
    131  CA        10.8580   35.3350    9.4310 C.3   218  PRO218      0.1504
    132  C         11.9600   35.2080    8.3360 C.2   218  PRO218      0.2575
    133  O         12.1180   36.2030    7.6000 O.2   218  PRO218     -0.2718
    134  CB        11.2780   36.3150   10.5620 C.3   218  PRO218      0.0282
    135  CG        10.5970   35.7930   11.7940 C.3   218  PRO218      0.0208
    136  CD        10.7200   34.2670   11.5820 C.3   218  PRO218      0.0893
    137  N         12.7170   34.0950    8.1830 N.am  219  LEU219     -0.1980
    138  CA        12.8520   32.9510    9.1080 C.3   219  LEU219      0.1596
    139  C         14.1540   33.2590    9.8330 C.2   219  LEU219      0.2287
    140  O         14.5080   34.4390    9.9810 O.2   219  LEU219     -0.2864
    141  CB        12.9300   31.5750    8.3760 C.3   219  LEU219      0.0297
    142  CG        12.3050   30.2490    8.9140 C.3   219  LEU219      0.0022
    143  CD1       12.2770   30.1130   10.4500 C.3   219  LEU219      0.0001
    144  CD2       10.9070   29.9460    8.3440 C.3   219  LEU219      0.0001
    145  N          7.6150   31.3310   20.4980 N.3   226  LEU226     -0.1245
    146  CA         7.4270   32.7900   20.8060 C.3   226  LEU226      0.1561
    147  C          6.5400   33.5820   19.8550 C.2   226  LEU226      0.2260
    148  O          6.8360   33.7270   18.6830 O.2   226  LEU226     -0.2867
    149  CB         8.7960   33.4990   20.8560 C.3   226  LEU226      0.0270
    150  CG         8.8110   34.8330   21.5900 C.3   226  LEU226      0.0019
    151  CD1        8.5450   34.6010   23.0440 C.3   226  LEU226      0.0001
    152  CD2       10.1370   35.4950   21.4290 C.3   226  LEU226      0.0001
    153  N          4.5760   32.8420   -0.7500 N.3   308  TYR308     -0.1241
    154  CA         3.5060   32.1480   -1.4100 C.3   308  TYR308      0.1605
    155  C          3.2530   32.7250   -2.7640 C.2   308  TYR308      0.2264
    156  O          3.0880   33.9440   -2.9260 O.2   308  TYR308     -0.2867
    157  CB         2.2540   32.1530   -0.5750 C.3   308  TYR308      0.0534
    158  CG         2.4610   31.4230    0.7240 C.ar  308  TYR308     -0.0201
    159  CD1        2.8870   30.0950    0.7440 C.ar  308  TYR308     -0.0009
    160  CD2        2.2650   32.0570    1.9280 C.ar  308  TYR308     -0.0009
    161  CE1        3.1010   29.4290    1.9330 C.ar  308  TYR308      0.0417
    162  CE2        2.4740   31.3960    3.1340 C.ar  308  TYR308      0.0417
    163  CZ         2.8900   30.0910    3.1280 C.ar  308  TYR308      0.1957
    164  OH         3.0910   29.4530    4.3290 O.3   308  TYR308     -0.2866
    165  N          9.4300   28.5180    0.3060 N.3   348  LEU348     -0.1245
    166  CA        10.2530   28.2550    1.4870 C.3   348  LEU348      0.1561
    167  C         11.0530   26.9720    1.3670 C.2   348  LEU348      0.2260
    168  O         10.8120   25.9980    2.1140 O.2   348  LEU348     -0.2867
    169  CB         9.3580   28.1090    2.7090 C.3   348  LEU348      0.0270
    170  CG         8.5770   29.2780    3.2710 C.3   348  LEU348      0.0019
    171  CD1        7.1010   28.8910    3.3590 C.3   348  LEU348      0.0001
    172  CD2        9.1390   29.6180    4.6210 C.3   348  LEU348      0.0001
@<TRIPOS>BOND
     1   156   155    2
     2   155   154    1
     3   154   153    1
     4   154   157    1
     5   157   158    1
     6   165   166    1
     7   158   159   ar
     8   158   160   ar
     9   159   161   ar
    10   167   166    1
    11   167   168    2
    12   166   169    1
    13   160   162   ar
    14   161   163   ar
    15    99    98    2
    16   169   170    1
    17    58    57    1
    18    58    59    2
    19    62    61    2
    20   163   162   ar
    21   163   164    1
    22    57    56    1
    23    57    60    1
    24   170   171    1
    25   170   172    1
    26    98    97    1
    27   103   105   ar
    28   103   101   ar
    29   100    97    1
    30   100   101    1
    31    61    60    1
    32    61    63   am
    33   105   106   ar
    34    97    96    1
    35   101   102   ar
    36    53    52    2
    37    26    27    1
    38   106   104   ar
    39   102   104   ar
    40    96    91   am
    41    92    91    2
    42    27    30    1
    43    27    28    1
    44    83    82   ar
    45    83    85   ar
    46    81    82    1
    47    81    78    1
    48    80    79    2
    49    82    84   ar
    50    52    51    1
    51    85    87   ar
    52    91    90    1
    53    84    86   ar
    54    87    86   ar
    55    87    88    1
    56    30    31    1
    57    55    54    1
    58    54    51    1
    59    28    29    2
    60    79    78    1
    61    51    50    1
    62    78    77    1
    63    32    31   ar
    64    32    34   ar
    65   133   132    2
    66    31    33   ar
    67    90    89    1
    68    90    93    1
    69   137   132   am
    70   137   138    1
    71    95    93    1
    72   132   131    1
    73   144   142    1
    74   141   142    1
    75   141   138    1
    76    34    36   ar
    77    77    74   am
    78    93    94    1
    79   142   143    1
    80    47    45   ar
    81    47    48   ar
    82    33    35   ar
    83   138   139    1
    84    45    43   ar
    85   131   130    1
    86   131   134    1
    87    67    66    2
    88    49    48    1
    89    36    35   ar
    90    36    37    1
    91   139   140    2
    92    74    75    2
    93    74    73    1
    94    48    46   ar
    95   130   136    1
    96    43    42    1
    97    43    44   ar
    98   134   135    1
    99    42    39    1
   100    66    65    1
   101    72    73    1
   102    38    39    1
   103    73    76    1
   104    46    44   ar
   105    68    69    1
   106    68    65    1
   107    70    69   ar
   108    39    40    1
   109    64    65    1
   110    69    71   ar
   111    40    41    2
   112   136   135    1
   113   127   126    2
   114   126   125    1
   115   116   115    2
   116   129   128    1
   117   125   128    1
   118   125   124    1
   119   115   124   am
   120   115   114    1
   121   110   109    2
   122   112   111    1
   123    18    17    1
   124    17    16    1
   125   114   113    1
   126   114   117    1
   127   109   113   am
   128   109   108    1
   129   107   108    1
   130     9     6    1
   131   108   111    1
   132   117   118    1
   133   119   118   ar
   134   119   121   ar
   135    16    15    1
   136    14    15    1
   137    14    11    1
   138   118   120   ar
   139   121   123   ar
   140    11    10    1
   141    11    12    1
   142    10     7   am
   143     6     7    1
   144     6     5    1
   145     7     8    2
   146     5     3   am
   147   120   122   ar
   148   123   122   ar
   149    12    13    2
   150    12    19   am
   151   148   147    2
   152     3     2    1
   153     3     4    2
   154    19    20    1
   155     2     1    1
   156   147   146    1
   157   145   146    1
   158    20    21    1
   159    20    23    1
   160   146   149    1
   161   149   150    1
   162    21    22    2
   163    25    23    1
   164   152   150    1
   165    23    24    1
   166   150   151    1
