@<TRIPOS>MOLECULE
tmp/3asjA03.pdb
 80 72 0 0 0
SMALL
GASTEIGER

@<TRIPOS>ATOM
      1  N         44.0610  -49.2990  -42.6000 N.3    88  ARG88      -0.1245
      2  CA        45.4590  -48.9140  -42.3980 C.3    88  ARG88       0.1563
      3  C         46.1580  -48.7180  -43.7540 C.2    88  ARG88       0.2260
      4  O         46.6390  -47.6170  -44.0700 O.2    88  ARG88      -0.2867
      5  CB        46.2100  -49.9650  -41.5700 C.3    88  ARG88       0.0307
      6  CG        45.9300  -49.9810  -40.0530 C.3    88  ARG88       0.0489
      7  CD        47.2900  -49.9210  -39.2830 C.3    88  ARG88       0.2205
      8  NE        47.4550  -50.9920  -38.2860 N.pl3  88  ARG88      -0.0865
      9  CZ        47.6640  -50.8140  -36.9770 C.cat  88  ARG88       0.5346
     10  NH1       47.7580  -49.5910  -36.4580 N.pl3  88  ARG88       0.1354
     11  NH2       47.7910  -51.8760  -36.1810 N.pl3  88  ARG88       0.1354
     12  N         44.6530  -45.9280  -45.6430 N.3    91  ASP91      -0.1239
     13  CA        44.5700  -44.7130  -44.8210 C.3    91  ASP91       0.1674
     14  C         43.1400  -44.1430  -44.9150 C.2    91  ASP91       0.2266
     15  O         42.9010  -42.9540  -45.2130 O.2    91  ASP91      -0.2867
     16  CB        45.6590  -43.7140  -45.2660 C.3    91  ASP91       0.1410
     17  CG        45.8360  -42.5690  -44.3000 C.2    91  ASP91       0.3668
     18  OD1       45.7920  -42.8000  -43.0730 O.co2  91  ASP91      -0.2456
     19  OD2       46.0270  -41.4180  -44.7620 O.co2  91  ASP91      -0.2456
     20  N         41.7310  -44.6090  -37.3260 N.3   120  THR120     -0.1203
     21  CA        43.1510  -44.6970  -37.5810 C.3   120  THR120      0.1994
     22  C         43.9510  -44.9050  -36.2900 C.2   120  THR120      0.2617
     23  O         44.8630  -45.7340  -36.2480 O.2   120  THR120     -0.2717
     24  CB        43.5720  -43.4060  -38.3590 C.3   120  THR120      0.1784
     25  OG1       43.7090  -43.7090  -39.7550 O.3   120  THR120     -0.2211
     26  CG2       44.8160  -42.7660  -37.8190 C.3   120  THR120      0.0376
     27  N         43.5900  -44.1440  -35.2570 N.am  121  GLU121     -0.1979
     28  CA        44.2950  -44.1110  -33.9850 C.3   121  GLU121      0.1602
     29  C         43.3960  -44.5480  -32.8430 C.2   121  GLU121      0.2287
     30  O         42.5710  -45.4460  -32.9660 O.2   121  GLU121     -0.2864
     31  CB        44.6720  -42.6950  -33.5860 C.3   121  GLU121      0.0415
     32  CG        45.1870  -41.7690  -34.5580 C.3   121  GLU121      0.1163
     33  CD        45.2370  -40.3840  -33.9430 C.2   121  GLU121      0.3649
     34  OE1       44.1780  -39.8810  -33.4920 O.co2 121  GLU121     -0.2457
     35  OE2       46.3380  -39.8030  -33.8830 O.co2 121  GLU121     -0.2457
     36  N         45.2860  -48.4170  -32.4920 N.3   125  VAL125     -0.1245
     37  CA        46.6810  -48.2720  -32.8340 C.3   125  VAL125      0.1561
     38  C         47.3670  -49.6700  -32.6860 C.2   125  VAL125      0.2260
     39  O         48.4260  -49.9480  -33.2810 O.2   125  VAL125     -0.2867
     40  CB        47.2170  -47.1770  -31.8910 C.3   125  VAL125      0.0252
     41  CG1       47.9310  -47.7740  -30.7010 C.3   125  VAL125      0.0019
     42  CG2       47.9880  -46.1180  -32.6290 C.3   125  VAL125      0.0019
     43  N         46.1900  -43.5280  -28.3520 N.3   140  VAL140     -0.1245
     44  CA        46.9430  -42.4420  -28.9960 C.3   140  VAL140      0.1561
     45  C         46.0340  -41.4080  -29.6910 C.2   140  VAL140      0.2260
     46  O         45.1420  -41.7490  -30.4890 O.2   140  VAL140     -0.2867
     47  CB        47.9440  -43.0480  -30.0250 C.3   140  VAL140      0.0252
     48  CG1       48.6760  -41.9730  -30.8270 C.3   140  VAL140      0.0019
     49  CG2       48.9020  -44.0630  -29.3350 C.3   140  VAL140      0.0019
     50  N         46.5530  -37.8140  -31.8720 N.3   142  SER142     -0.1217
     51  CA        47.4430  -36.8140  -32.4010 C.3   142  SER142      0.1889
     52  C         46.6640  -35.6310  -32.9800 C.2   142  SER142      0.2288
     53  O         45.4940  -35.7820  -33.3730 O.2   142  SER142     -0.2866
     54  CB        48.3460  -37.4380  -33.4510 C.3   142  SER142      0.2089
     55  OG        47.6150  -37.8080  -34.5970 O.3   142  SER142     -0.2183
     56  N         47.2250  -34.2510  -35.8130 N.3   144  LYS144     -0.1231
     57  CA        47.0570  -34.3630  -37.2490 C.3   144  LYS144      0.1693
     58  C         45.8640  -35.2610  -37.6030 C.2   144  LYS144      0.2591
     59  O         45.0010  -34.8510  -38.3840 O.2   144  LYS144     -0.2718
     60  CB        48.4000  -34.6820  -37.9510 C.3   144  LYS144      0.0285
     61  CG        48.3250  -35.6360  -39.1380 C.3   144  LYS144      0.0035
     62  CD        49.6500  -35.6260  -39.9380 C.3   144  LYS144      0.0206
     63  CE        49.6510  -36.7390  -41.0180 C.3   144  LYS144      0.1093
     64  NZ        50.1600  -36.2360  -42.3500 N.3   144  LYS144     -0.1314
     65  N         45.7660  -36.4350  -36.9770 N.am  145  ALA145     -0.1980
     66  CA        44.5920  -37.3060  -37.1740 C.3   145  ALA145      0.1597
     67  C         43.2670  -36.6100  -36.7460 C.2   145  ALA145      0.2287
     68  O         42.2350  -36.7300  -37.4280 O.2   145  ALA145     -0.2864
     69  CB        44.7620  -38.6490  -36.4510 C.3   145  ALA145      0.0319
     70  N         42.3000  -34.1490  -39.4230 N.3   148  ARG148     -0.1245
     71  CA        41.7340  -34.8220  -40.5850 C.3   148  ARG148      0.1563
     72  C         40.2800  -35.2540  -40.3510 C.2   148  ARG148      0.2260
     73  O         39.4060  -35.0510  -41.2180 O.2   148  ARG148     -0.2867
     74  CB        42.6020  -36.0050  -40.9920 C.3   148  ARG148      0.0307
     75  CG        44.0530  -35.6110  -41.1740 C.3   148  ARG148      0.0489
     76  CD        44.6490  -36.2950  -42.3830 C.3   148  ARG148      0.2205
     77  NE        44.9270  -37.6920  -42.1200 N.pl3 148  ARG148     -0.0865
     78  CZ        45.1950  -38.5950  -43.0550 C.cat 148  ARG148      0.5346
     79  NH1       45.4430  -39.8440  -42.6670 N.pl3 148  ARG148      0.1354
     80  NH2       45.2110  -38.2560  -44.3570 N.pl3 148  ARG148      0.1354
@<TRIPOS>BOND
     1    12    13    1
     2    16    13    1
     3    16    17    1
     4    15    14    2
     5    14    13    1
     6    19    17   ar
     7    80    78    1
     8    17    18   ar
     9     4     3    2
    10     3     2    1
    11    78    79    1
    12    78    77    2
    13     1     2    1
    14     2     5    1
    15    76    77    1
    16    76    75    1
    17    64    63    1
    18     5     6    1
    19    73    72    2
    20    75    74    1
    21    63    62    1
    22    74    71    1
    23    71    72    1
    24    71    70    1
    25     6     7    1
    26    62    61    1
    27    25    24    1
    28     7     8    1
    29    61    60    1
    30    59    58    2
    31    24    26    1
    32    24    21    1
    33     8     9    2
    34    60    57    1
    35    58    57    1
    36    58    65   am
    37    21    20    1
    38    21    22    1
    39    68    67    2
    40    57    56    1
    41    66    65    1
    42    66    67    1
    43    66    69    1
    44     9    10    1
    45     9    11    1
    46    22    23    2
    47    22    27   am
    48    27    28    1
    49    55    54    1
    50    32    33    1
    51    32    31    1
    52    28    31    1
    53    28    29    1
    54    33    35   ar
    55    33    34   ar
    56    54    51    1
    57    53    52    2
    58    39    38    2
    59    52    51    1
    60    30    29    2
    61    37    38    1
    62    37    36    1
    63    37    40    1
    64    42    40    1
    65    51    50    1
    66    40    41    1
    67    48    47    1
    68    46    45    2
    69    47    49    1
    70    47    44    1
    71    45    44    1
    72    44    43    1
