@<TRIPOS>MOLECULE
tmp/3asjB05.pdb
 96 89 0 0 0
SMALL
GASTEIGER

@<TRIPOS>ATOM
      1  N         28.2370  -50.0680   -9.4690 N.3    96  VAL96      -0.1245
      2  CA        27.0030  -50.8030   -9.7500 C.3    96  VAL96       0.1561
      3  C         25.8930  -49.8670  -10.1910 C.2    96  VAL96       0.2260
      4  O         25.4830  -48.9600   -9.4410 O.2    96  VAL96      -0.2867
      5  CB        26.5330  -51.7190   -8.5620 C.3    96  VAL96       0.0252
      6  CG1       25.3890  -52.6220   -9.0160 C.3    96  VAL96       0.0019
      7  CG2       27.6810  -52.5720   -8.0460 C.3    96  VAL96       0.0019
      8  N         22.1330  -50.1890  -11.6500 N.3    98  PRO98      -0.2116
      9  CA        20.9160  -50.8140  -12.2070 C.3    98  PRO98       0.1372
     10  C         20.1770  -49.9320  -13.2320 C.2    98  PRO98       0.2244
     11  O         20.2390  -48.7040  -13.1610 O.2    98  PRO98      -0.2868
     12  CB        20.0370  -51.0270  -10.9750 C.3    98  PRO98       0.0268
     13  CG        20.5300  -50.0380  -10.0080 C.3    98  PRO98       0.0207
     14  CD        22.0120  -49.9810  -10.2010 C.3    98  PRO98       0.0892
     15  N         21.4500  -54.9510  -14.4800 N.3   114  VAL114     -0.1245
     16  CA        22.4690  -54.3440  -13.6320 C.3   114  VAL114      0.1561
     17  C         23.8020  -54.3090  -14.3650 C.2   114  VAL114      0.2260
     18  O         24.3440  -55.3600  -14.7220 O.2   114  VAL114     -0.2867
     19  CB        22.6370  -55.1180  -12.3040 C.3   114  VAL114      0.0252
     20  CG1       23.8350  -54.5660  -11.5130 C.3   114  VAL114      0.0019
     21  CG2       21.3680  -55.0270  -11.4710 C.3   114  VAL114      0.0019
     22  N         26.5090  -60.6410   -7.6590 N.3   156  ILE156     -0.1245
     23  CA        25.2740  -59.8930   -7.9550 C.3   156  ILE156      0.1561
     24  C         24.2780  -60.7040   -8.8090 C.2   156  ILE156      0.2260
     25  O         23.0630  -60.6950   -8.5340 O.2   156  ILE156     -0.2867
     26  CB        25.5590  -58.5470   -8.6310 C.3   156  ILE156      0.0252
     27  CG1       26.1090  -57.5440   -7.6130 C.3   156  ILE156      0.0019
     28  CG2       24.2850  -57.9960   -9.2740 C.3   156  ILE156      0.0019
     29  CD1       26.6040  -56.2490   -8.2200 C.3   156  ILE156      0.0001
     30  N         20.2630  -62.7380   -8.1990 N.3   160  ARG160     -0.1245
     31  CA        19.1610  -62.2820   -9.0290 C.3   160  ARG160      0.1563
     32  C         18.4770  -63.4970   -9.6570 C.2   160  ARG160      0.2260
     33  O         19.0850  -64.5710   -9.7490 O.2   160  ARG160     -0.2867
     34  CB        19.6490  -61.2490  -10.0520 C.3   160  ARG160      0.0307
     35  CG        19.7820  -59.8550   -9.4400 C.3   160  ARG160      0.0489
     36  CD        20.4130  -58.8580  -10.3750 C.3   160  ARG160      0.2205
     37  NE        19.7630  -58.7460  -11.6860 N.pl3 160  ARG160     -0.0865
     38  CZ        18.8550  -57.8280  -12.0120 C.cat 160  ARG160      0.5346
     39  NH1       18.4460  -56.9180  -11.1220 N.pl3 160  ARG160      0.1354
     40  NH2       18.3440  -57.8230  -13.2400 N.pl3 160  ARG160      0.1354
     41  N         31.3210  -49.6130   -4.6730 N.3   248  ILE248     -0.1245
     42  CA        31.5280  -50.6310   -3.6700 C.3   248  ILE248      0.1561
     43  C         32.9140  -51.2380   -3.7160 C.2   248  ILE248      0.2260
     44  O         33.3690  -51.6570   -4.7670 O.2   248  ILE248     -0.2867
     45  CB        30.4280  -51.7260   -3.7590 C.3   248  ILE248      0.0252
     46  CG1       29.0410  -51.0480   -3.8130 C.3   248  ILE248      0.0019
     47  CG2       30.5260  -52.7270   -2.5510 C.3   248  ILE248      0.0019
     48  CD1       27.8890  -51.9700   -4.1640 C.3   248  ILE248      0.0001
     49  N         27.0710  -44.5880   -2.0950 N.3   255  PHE255     -0.1241
     50  CA        25.9500  -44.6470   -3.0210 C.3   255  PHE255      0.1605
     51  C         25.5440  -43.2280   -3.3700 C.2   255  PHE255      0.2264
     52  O         25.5820  -42.3280   -2.5450 O.2   255  PHE255     -0.2867
     53  CB        24.7850  -45.4480   -2.4180 C.3   255  PHE255      0.0534
     54  CG        25.1490  -46.8730   -1.9990 C.ar  255  PHE255     -0.0203
     55  CD1       25.7670  -47.1210   -0.7750 C.ar  255  PHE255     -0.0042
     56  CD2       24.8810  -47.9550   -2.8410 C.ar  255  PHE255     -0.0042
     57  CE1       26.1140  -48.4410   -0.3870 C.ar  255  PHE255     -0.0003
     58  CE2       25.2110  -49.2660   -2.4690 C.ar  255  PHE255     -0.0003
     59  CZ        25.8320  -49.5060   -1.2160 C.ar  255  PHE255     -0.0000
     60  N         19.5590  -49.1970   -2.5870 N.3   282  MET282     -0.1245
     61  CA        20.7570  -49.9650   -2.9290 C.3   282  MET282      0.1570
     62  C         21.6280  -50.1400   -1.7000 C.2   282  MET282      0.2261
     63  O         22.1590  -51.2210   -1.4320 O.2   282  MET282     -0.2867
     64  CB        21.5750  -49.2480   -4.0030 C.3   282  MET282      0.0387
     65  CG        21.0000  -49.2640   -5.4180 C.3   282  MET282      0.0595
     66  SD        22.2210  -48.7160   -6.6660 S.3   282  MET282     -0.1393
     67  CE        23.3640  -50.0970   -6.6040 C.3   282  MET282      0.0692
     68  N         20.1370  -52.6210    0.8630 N.3   285  ASP285     -0.1225
     69  CA        20.4390  -53.9230    0.3150 C.3   285  ASP285      0.1805
     70  C         21.8870  -54.3780    0.5430 C.2   285  ASP285      0.2597
     71  O         22.1040  -55.4770    1.0170 O.2   285  ASP285     -0.2718
     72  CB        20.1070  -53.9580   -1.1660 C.3   285  ASP285      0.1424
     73  CG        20.0430  -55.3690   -1.6990 C.2   285  ASP285      0.3668
     74  OD1       21.1130  -55.9480   -1.9650 O.co2 285  ASP285     -0.2456
     75  OD2       18.9210  -55.9120   -1.8380 O.co2 285  ASP285     -0.2456
     76  N         22.8710  -53.5530    0.2020 N.am  286  TYR286     -0.1976
     77  CA        24.2830  -53.8650    0.4800 C.3   286  TYR286      0.1639
     78  C         24.5570  -54.1610    1.9440 C.2   286  TYR286      0.2290
     79  O         25.4890  -54.8900    2.2690 O.2   286  TYR286     -0.2864
     80  CB        25.1590  -52.6920    0.0310 C.3   286  TYR286      0.0560
     81  CG        26.5030  -52.5540    0.7030 C.ar  286  TYR286     -0.0198
     82  CD1       27.5860  -53.3070    0.2710 C.ar  286  TYR286     -0.0009
     83  CD2       26.7050  -51.6410    1.7490 C.ar  286  TYR286     -0.0009
     84  CE1       28.8150  -53.1900    0.8490 C.ar  286  TYR286      0.0417
     85  CE2       27.9580  -51.5100    2.3490 C.ar  286  TYR286      0.0417
     86  CZ        29.0140  -52.3050    1.8830 C.ar  286  TYR286      0.1957
     87  OH        30.2920  -52.2200    2.4290 O.3   286  TYR286     -0.2866
     88  N         17.5730  -56.5630    2.9000 N.3   290  LYS290     -0.1245
     89  CA        16.8730  -56.8070    1.6230 C.3   290  LYS290      0.1561
     90  C         15.3890  -56.4330    1.6110 C.2   290  LYS290      0.2260
     91  O         14.8960  -55.8880    0.6090 O.2   290  LYS290     -0.2867
     92  CB        17.0280  -58.2580    1.1890 C.3   290  LYS290      0.0271
     93  CG        18.3080  -58.5730    0.3880 C.3   290  LYS290      0.0035
     94  CD        19.4420  -59.0920    1.2860 C.3   290  LYS290      0.0206
     95  CE        20.6590  -59.5670    0.4600 C.3   290  LYS290      0.1093
     96  NZ        21.7340  -58.5110    0.2830 N.3   290  LYS290     -0.1314
@<TRIPOS>BOND
     1    18    17    2
     2    15    16    1
     3    17    16    1
     4    16    19    1
     5    40    38    1
     6    10    11    2
     7    10     9    1
     8    19    20    1
     9    19    21    1
    10     9     8    1
    11     9    12    1
    12    38    37    2
    13    38    39    1
    14    37    36    1
    15     8    14    1
    16    12    13    1
    17    36    35    1
    18    14    13    1
    19     3     2    1
    20     3     4    2
    21    34    35    1
    22    34    31    1
    23     2     1    1
    24     2     5    1
    25    33    32    2
    26    32    31    1
    27    28    26    1
    28    31    30    1
    29     6     5    1
    30    24    25    2
    31    24    23    1
    32    26    23    1
    33    26    27    1
    34     5     7    1
    35    29    27    1
    36    23    22    1
    37    66    67    1
    38    66    65    1
    39    65    64    1
    40    44    43    2
    41    41    42    1
    42    48    46    1
    43    64    61    1
    44    46    45    1
    45    45    42    1
    46    45    47    1
    47    43    42    1
    48    51    50    1
    49    51    52    2
    50    50    53    1
    51    50    49    1
    52    61    60    1
    53    61    62    1
    54    56    58   ar
    55    56    54   ar
    56    58    59   ar
    57    53    54    1
    58    54    55   ar
    59    74    73   ar
    60    75    73   ar
    61    62    63    2
    62    73    72    1
    63    59    57   ar
    64    72    69    1
    65    55    57   ar
    66    80    77    1
    67    80    81    1
    68    76    77    1
    69    76    70   am
    70    82    81   ar
    71    82    84   ar
    72    96    95    1
    73    69    70    1
    74    69    68    1
    75    93    92    1
    76    93    94    1
    77    95    94    1
    78    77    78    1
    79    70    71    2
    80    91    90    2
    81    81    83   ar
    82    84    86   ar
    83    92    89    1
    84    90    89    1
    85    89    88    1
    86    83    85   ar
    87    86    85   ar
    88    86    87    1
    89    78    79    2
