@<TRIPOS>MOLECULE
tmp/3asjA02.pdb
 89 82 0 0 0
SMALL
GASTEIGER

@<TRIPOS>ATOM
      1  N         43.5580  -43.8390  -31.7300 N.3   122  GLY122     -0.1210
      2  CA        42.9120  -44.1500  -30.4880 C.3   122  GLY122      0.1956
      3  C         43.4370  -45.4570  -29.9920 C.2   122  GLY122      0.2611
      4  O         44.6280  -45.7110  -30.0960 O.2   122  GLY122     -0.2717
      5  N         42.5320  -46.2960  -29.4960 N.am  123  LEU123     -0.1979
      6  CA        42.8680  -47.6580  -29.0850 C.3   123  LEU123      0.1596
      7  C         43.1480  -48.6460  -30.2270 C.2   123  LEU123      0.2287
      8  O         43.6590  -49.7320  -29.9770 O.2   123  LEU123     -0.2864
      9  CB        41.8260  -48.1940  -28.1070 C.3   123  LEU123      0.0297
     10  CG        41.8960  -47.4530  -26.7400 C.3   123  LEU123      0.0022
     11  CD1       40.5250  -47.2550  -26.0980 C.3   123  LEU123      0.0001
     12  CD2       42.9220  -48.1010  -25.7400 C.3   123  LEU123      0.0001
     13  N         46.5930  -45.7520  -25.9270 N.3   139  ALA139     -0.1245
     14  CA        45.5060  -45.0030  -26.5340 C.3   139  ALA139      0.1562
     15  C         46.1220  -43.6880  -27.0320 C.2   139  ALA139      0.2260
     16  O         46.5230  -42.8460  -26.2310 O.2   139  ALA139     -0.2867
     17  CB        44.4130  -44.7500  -25.5130 C.3   139  ALA139      0.0290
     18  N         46.2730  -40.1390  -29.4040 N.3   141  ILE141     -0.1245
     19  CA        45.5320  -39.0760  -30.0690 C.3   141  ILE141      0.1561
     20  C         46.5100  -38.0240  -30.5650 C.2   141  ILE141      0.2260
     21  O         47.2430  -37.4220  -29.7750 O.2   141  ILE141     -0.2867
     22  CB        44.4570  -38.4440  -29.1210 C.3   141  ILE141      0.0252
     23  CG1       43.3240  -39.4440  -28.8080 C.3   141  ILE141      0.0019
     24  CG2       43.8730  -37.1950  -29.7130 C.3   141  ILE141      0.0019
     25  CD1       42.5310  -39.9360  -30.0300 C.3   141  ILE141      0.0001
     26  N         35.7730  -37.7510  -24.1970 N.3   170  LYS170     -0.1245
     27  CA        35.9500  -37.9300  -22.7540 C.3   170  LYS170      0.1561
     28  C         37.0810  -37.0650  -22.1740 C.2   170  LYS170      0.2260
     29  O         37.9060  -37.5470  -21.4030 O.2   170  LYS170     -0.2867
     30  CB        36.1590  -39.4090  -22.4190 C.3   170  LYS170      0.0271
     31  CG        35.9450  -39.7680  -20.9620 C.3   170  LYS170      0.0035
     32  CD        34.5280  -39.4800  -20.5700 C.3   170  LYS170      0.0206
     33  CE        34.2060  -40.0580  -19.2390 C.3   170  LYS170      0.1093
     34  NZ        32.7730  -39.9210  -18.9370 N.3   170  LYS170     -0.1314
     35  N         40.2050  -37.6330  -19.3330 N.3   174  LEU174     -0.1245
     36  CA        41.3860  -37.7600  -20.2060 C.3   174  LEU174      0.1561
     37  C         41.7490  -36.4500  -20.9070 C.2   174  LEU174      0.2260
     38  O         41.5840  -36.3340  -22.1190 O.2   174  LEU174     -0.2867
     39  CB        41.1370  -38.8300  -21.2680 C.3   174  LEU174      0.0270
     40  CG        41.0080  -40.2280  -20.6720 C.3   174  LEU174      0.0019
     41  CD1       40.1350  -41.0830  -21.5560 C.3   174  LEU174      0.0001
     42  CD2       42.3870  -40.8430  -20.4460 C.3   174  LEU174      0.0001
     43  N         44.6990  -36.6090  -24.0650 N.3   177  THR177     -0.1203
     44  CA        44.3500  -37.2800  -25.3050 C.3   177  THR177      0.1994
     45  C         42.9960  -36.7990  -25.8140 C.2   177  THR177      0.2617
     46  O         42.8700  -36.2540  -26.9270 O.2   177  THR177     -0.2717
     47  CB        44.3010  -38.8090  -25.1050 C.3   177  THR177      0.1784
     48  OG1       43.5430  -39.0960  -23.9240 O.3   177  THR177     -0.2211
     49  CG2       45.7140  -39.3890  -24.9670 C.3   177  THR177      0.0376
     50  N         41.9730  -37.0100  -24.9990 N.am  178  GLN178     -0.1979
     51  CA        40.6320  -36.6030  -25.3820 C.3   178  GLN178      0.1601
     52  C         40.5160  -35.0770  -25.4840 C.2   178  GLN178      0.2287
     53  O         39.8070  -34.5680  -26.3550 O.2   178  GLN178     -0.2864
     54  CB        39.5780  -37.2400  -24.4840 C.3   178  GLN178      0.0394
     55  CG        39.3200  -38.7190  -24.8030 C.3   178  GLN178      0.0908
     56  CD        38.4820  -38.9340  -26.0750 C.2   178  GLN178      0.2608
     57  OE1       37.3870  -38.3930  -26.1990 O.2   178  GLN178     -0.2717
     58  NE2       38.9900  -39.7380  -27.0110 N.am  178  GLN178     -0.0878
     59  N         36.1740  -40.2750  -31.5760 N.3   222  THR222     -0.1203
     60  CA        37.3710  -41.0570  -31.7530 C.3   222  THR222      0.1994
     61  C         37.0760  -42.5310  -31.9990 C.2   222  THR222      0.2618
     62  O         35.9290  -42.9410  -32.0520 O.2   222  THR222     -0.2717
     63  CB        38.3430  -40.8370  -30.5810 C.3   222  THR222      0.1784
     64  OG1       37.6850  -41.0960  -29.3380 O.3   222  THR222     -0.2211
     65  CG2       38.8570  -39.4250  -30.6090 C.3   222  THR222      0.0376
     66  N         38.1280  -43.3270  -32.1590 N.am  223  ASN223     -0.1960
     67  CA        37.9910  -44.6770  -32.7160 C.3   223  ASN223      0.1819
     68  C         37.0940  -45.6420  -31.9220 C.2   223  ASN223      0.2621
     69  O         36.0020  -46.0130  -32.3840 O.2   223  ASN223     -0.2715
     70  CB        39.3640  -45.2640  -33.0350 C.3   223  ASN223      0.1195
     71  CG        39.3210  -46.1990  -34.1870 C.2   223  ASN223      0.2630
     72  OD1       38.2530  -46.6470  -34.5730 O.2   223  ASN223     -0.2716
     73  ND2       40.4770  -46.5180  -34.7500 N.am  223  ASN223     -0.0877
     74  N         37.5290  -46.0470  -30.7380 N.am  224  LEU224     -0.1963
     75  CA        36.6840  -46.9310  -29.9340 C.3   224  LEU224      0.1728
     76  C         35.3080  -46.3100  -29.6450 C.2   224  LEU224      0.2616
     77  O         34.2620  -46.9650  -29.7340 O.2   224  LEU224     -0.2715
     78  CB        37.3730  -47.3120  -28.6210 C.3   224  LEU224      0.0311
     79  CG        36.5650  -48.2530  -27.7300 C.3   224  LEU224      0.0022
     80  CD1       36.2220  -49.5320  -28.4800 C.3   224  LEU224      0.0001
     81  CD2       37.3620  -48.5270  -26.4220 C.3   224  LEU224      0.0001
     82  N         35.3320  -45.0370  -29.2910 N.am  225  LEU225     -0.1977
     83  CA        34.1140  -44.3140  -28.9450 C.3   225  LEU225      0.1596
     84  C         33.1150  -44.3910  -30.0790 C.2   225  LEU225      0.2287
     85  O         31.9350  -44.6860  -29.8550 O.2   225  LEU225     -0.2864
     86  CB        34.4410  -42.8540  -28.6170 C.3   225  LEU225      0.0297
     87  CG        35.1790  -42.6520  -27.3060 C.3   225  LEU225      0.0022
     88  CD1       35.0460  -41.2090  -26.8820 C.3   225  LEU225      0.0001
     89  CD2       34.6510  -43.6230  -26.2160 C.3   225  LEU225      0.0001
@<TRIPOS>BOND
     1    73    71   am
     2    72    71    2
     3    71    70    1
     4    70    67    1
     5    67    66    1
     6    67    68    1
     7    69    68    2
     8    66    61   am
     9    62    61    2
    10    61    60    1
    11    68    74   am
    12    60    59    1
    13    60    63    1
    14     1     2    1
    15    74    75    1
    16    65    63    1
    17    63    64    1
    18    20    19    1
    19    20    21    2
    20     2     3    1
    21     7     8    2
    22     7     6    1
    23     4     3    2
    24    84    85    2
    25    84    83    1
    26    19    18    1
    27    19    22    1
    28    25    23    1
    29     3     5   am
    30    75    76    1
    31    75    78    1
    32    77    76    2
    33    24    22    1
    34    76    82   am
    35     5     6    1
    36    82    83    1
    37    22    23    1
    38     6     9    1
    39    83    86    1
    40    78    79    1
    41    86    87    1
    42    80    79    1
    43     9    10    1
    44    79    81    1
    45    87    88    1
    46    87    89    1
    47    15    14    1
    48    15    16    2
    49    58    56   am
    50    46    45    2
    51    10    11    1
    52    10    12    1
    53    14    13    1
    54    14    17    1
    55    53    52    2
    56    57    56    2
    57    56    55    1
    58    45    44    1
    59    45    50   am
    60    52    51    1
    61    51    50    1
    62    51    54    1
    63    44    47    1
    64    44    43    1
    65    47    49    1
    66    47    48    1
    67    55    54    1
    68    26    27    1
    69    27    30    1
    70    27    28    1
    71    30    31    1
    72    28    29    2
    73    38    37    2
    74    41    40    1
    75    39    40    1
    76    39    36    1
    77    31    32    1
    78    37    36    1
    79    40    42    1
    80    32    33    1
    81    36    35    1
    82    33    34    1
