@<TRIPOS>MOLECULE
tmp/3asjC00.pdb
 104 95 0 0 0
SMALL
GASTEIGER

@<TRIPOS>ATOM
      1  N         68.7660  -28.2480  -11.3900 N.3    83  ILE83      -0.1231
      2  CA        69.3460  -28.3360  -12.7240 C.3    83  ILE83       0.1692
      3  C         68.3970  -28.9520  -13.7300 C.2    83  ILE83       0.2591
      4  O         68.3270  -28.4940  -14.8690 O.2    83  ILE83      -0.2718
      5  CB        70.7070  -29.0580  -12.7050 C.3    83  ILE83       0.0266
      6  CG1       71.7590  -28.1630  -12.0440 C.3    83  ILE83       0.0019
      7  CG2       71.1500  -29.4500  -14.1110 C.3    83  ILE83       0.0020
      8  CD1       72.1440  -26.9190  -12.8850 C.3    83  ILE83       0.0001
      9  N         67.6610  -29.9780  -13.3120 N.am   84  ARG84      -0.1980
     10  CA        66.6570  -30.6050  -14.1810 C.3    84  ARG84       0.1597
     11  C         65.5250  -29.6250  -14.4950 C.2    84  ARG84       0.2287
     12  O         65.0720  -29.5580  -15.6350 O.2    84  ARG84      -0.2864
     13  CB        66.1420  -31.9400  -13.6060 C.3    84  ARG84       0.0334
     14  CG        67.1950  -33.0760  -13.6830 C.3    84  ARG84       0.0492
     15  CD        66.6500  -34.5100  -13.4860 C.3    84  ARG84       0.2205
     16  NE        66.7360  -34.9670  -12.0870 N.pl3  84  ARG84      -0.0865
     17  CZ        67.8620  -35.3140  -11.4430 C.cat  84  ARG84       0.5346
     18  NH1       67.7880  -35.7140  -10.1710 N.pl3  84  ARG84       0.1354
     19  NH2       69.0610  -35.2650  -12.0470 N.pl3  84  ARG84       0.1354
     20  N         67.0220  -26.9790  -17.0070 N.3    87  ARG87      -0.1245
     21  CA        67.1530  -27.6000  -18.3060 C.3    87  ARG87       0.1563
     22  C         65.8370  -27.5410  -19.0700 C.2    87  ARG87       0.2260
     23  O         65.8120  -27.1580  -20.2440 O.2    87  ARG87      -0.2867
     24  CB        67.6400  -29.0450  -18.1840 C.3    87  ARG87       0.0307
     25  CG        69.1010  -29.1670  -17.8080 C.3    87  ARG87       0.0489
     26  CD        69.4990  -30.5850  -17.5290 C.3    87  ARG87       0.2205
     27  NE        70.9000  -30.6570  -17.1330 N.pl3  87  ARG87      -0.0865
     28  CZ        71.4820  -31.7140  -16.5790 C.cat  87  ARG87       0.5346
     29  NH1       70.7830  -32.8060  -16.3120 N.pl3  87  ARG87       0.1354
     30  NH2       72.7640  -31.6760  -16.2740 N.pl3  87  ARG87       0.1354
     31  N         73.8100  -30.9470  -23.5500 N.3    95  ASN95      -0.1240
     32  CA        74.7660  -31.1160  -22.4560 C.3    95  ASN95       0.1653
     33  C         76.1850  -31.3600  -22.9700 C.2    95  ASN95       0.2266
     34  O         76.4540  -32.4140  -23.5390 O.2    95  ASN95      -0.2867
     35  CB        74.3580  -32.2320  -21.5050 C.3    95  ASN95       0.1155
     36  CG        75.0780  -32.1470  -20.1690 C.2    95  ASN95       0.2627
     37  OD1       74.7710  -31.3080  -19.3310 O.2    95  ASN95      -0.2716
     38  ND2       76.0330  -33.0060  -19.9690 N.am   95  ASN95      -0.0877
     39  N         80.1760  -31.7950  -22.3210 N.3    97  ARG97      -0.1245
     40  CA        81.0360  -32.3410  -21.2830 C.3    97  ARG97       0.1563
     41  C         82.3680  -32.7020  -21.8740 C.2    97  ARG97       0.2260
     42  O         82.5600  -33.8440  -22.2830 O.2    97  ARG97      -0.2867
     43  CB        80.4230  -33.6000  -20.6510 C.3    97  ARG97       0.0307
     44  CG        79.2770  -33.3620  -19.6300 C.3    97  ARG97       0.0489
     45  CD        79.7780  -33.0780  -18.1990 C.3    97  ARG97       0.2205
     46  NE        80.9050  -33.9480  -17.8310 N.pl3  97  ARG97      -0.0865
     47  CZ        80.8210  -35.0580  -17.0860 C.cat  97  ARG97       0.5346
     48  NH1       81.9220  -35.7730  -16.8540 N.pl3  97  ARG97       0.1354
     49  NH2       79.6490  -35.4620  -16.5900 N.pl3  97  ARG97       0.1354
     50  N         75.5370  -34.4940  -25.0810 N.3   117  ARG117     -0.1245
     51  CA        74.4210  -35.3790  -24.7360 C.3   117  ARG117      0.1563
     52  C         73.0790  -34.6920  -24.8540 C.2   117  ARG117      0.2260
     53  O         72.9170  -33.5640  -24.3870 O.2   117  ARG117     -0.2867
     54  CB        74.6270  -36.0730  -23.3900 C.3   117  ARG117      0.0307
     55  CG        74.0100  -35.4270  -22.2090 C.3   117  ARG117      0.0489
     56  CD        73.3270  -36.4530  -21.2630 C.3   117  ARG117      0.2205
     57  NE        73.6220  -36.0310  -19.9150 N.pl3 117  ARG117     -0.0865
     58  CZ        72.8820  -36.2280  -18.8370 C.cat 117  ARG117      0.5346
     59  NH1       73.2950  -35.7340  -17.6910 N.pl3 117  ARG117      0.1354
     60  NH2       71.7480  -36.8950  -18.8890 N.pl3 117  ARG117      0.1354
     61  N         64.8440  -39.4100  -19.6320 N.3   124  TYR124     -0.1241
     62  CA        64.6320  -38.2630  -18.7740 C.3   124  TYR124      0.1605
     63  C         63.2990  -37.5300  -18.9210 C.2   124  TYR124      0.2264
     64  O         63.0540  -36.5790  -18.1950 O.2   124  TYR124     -0.2867
     65  CB        65.7800  -37.2860  -18.9210 C.3   124  TYR124      0.0534
     66  CG        67.0120  -37.7280  -18.2020 C.ar  124  TYR124     -0.0201
     67  CD1       67.6550  -38.9240  -18.5540 C.ar  124  TYR124     -0.0009
     68  CD2       67.5570  -36.9630  -17.1860 C.ar  124  TYR124     -0.0009
     69  CE1       68.8090  -39.3470  -17.9020 C.ar  124  TYR124      0.0417
     70  CE2       68.7160  -37.3780  -16.5310 C.ar  124  TYR124      0.0417
     71  CZ        69.3310  -38.5760  -16.9000 C.ar  124  TYR124      0.1957
     72  OH        70.4700  -38.9990  -16.2810 O.3   124  TYR124     -0.2866
     73  N         75.0030  -39.4100  -20.1180 N.3   227  ASP227     -0.1239
     74  CA        75.2300  -39.3020  -18.7210 C.3   227  ASP227      0.1674
     75  C         76.3470  -40.2490  -18.3150 C.2   227  ASP227      0.2266
     76  O         77.2830  -39.8440  -17.6400 O.2   227  ASP227     -0.2867
     77  CB        73.9530  -39.6460  -17.9580 C.3   227  ASP227      0.1410
     78  CG        74.1740  -39.6900  -16.4600 C.2   227  ASP227      0.3668
     79  OD1       74.8840  -38.8100  -15.9640 O.co2 227  ASP227     -0.2456
     80  OD2       73.6600  -40.6000  -15.7820 O.co2 227  ASP227     -0.2456
     81  N         80.6400  -39.5570  -17.5190 N.3   231  ASP231     -0.1239
     82  CA        81.2780  -39.8890  -16.2600 C.3   231  ASP231      0.1674
     83  C         82.4090  -40.8920  -16.4000 C.2   231  ASP231      0.2266
     84  O         83.4070  -40.7570  -15.7400 O.2   231  ASP231     -0.2867
     85  CB        80.2350  -40.2620  -15.2160 C.3   231  ASP231      0.1410
     86  CG        79.5830  -39.0210  -14.5900 C.2   231  ASP231      0.3668
     87  OD1       79.9980  -37.8700  -14.8930 O.co2 231  ASP231     -0.2456
     88  OD2       78.6690  -39.1880  -13.7700 O.co2 231  ASP231     -0.2456
     89  N         78.1880  -25.4190  -15.1860 N.3   256  GLU256     -0.1245
     90  CA        78.0290  -26.0690  -13.9010 C.3   256  GLU256      0.1567
     91  C         79.1360  -27.1230  -13.7600 C.2   256  GLU256      0.2260
     92  O         79.4500  -27.8040  -14.7280 O.2   256  GLU256     -0.2867
     93  CB        76.6240  -26.6920  -13.8810 C.3   256  GLU256      0.0388
     94  CG        76.4330  -27.8780  -12.9560 C.3   256  GLU256      0.1160
     95  CD        75.4150  -28.8960  -13.4720 C.2   256  GLU256      0.3649
     96  OE1       74.9920  -28.8100  -14.6680 O.co2 256  GLU256     -0.2457
     97  OE2       75.0600  -29.8080  -12.6740 O.co2 256  GLU256     -0.2457
     98  N         80.4330  -30.8010  -12.6170 N.3   258  VAL258     -0.1245
     99  CA        79.7540  -32.0910  -12.4770 C.3   258  VAL258      0.1561
    100  C         79.6070  -32.5160  -11.0120 C.2   258  VAL258      0.2260
    101  O         78.5850  -33.0500  -10.6560 O.2   258  VAL258     -0.2867
    102  CB        80.4560  -33.2050  -13.2720 C.3   258  VAL258      0.0252
    103  CG1       79.6150  -34.4790  -13.2560 C.3   258  VAL258      0.0019
    104  CG2       80.6950  -32.7460  -14.6960 C.3   258  VAL258      0.0019
@<TRIPOS>BOND
     1    50    51    1
     2    52    51    1
     3    52    53    2
     4    51    54    1
     5    31    32    1
     6    34    33    2
     7    54    55    1
     8    33    32    1
     9    32    35    1
    10    39    40    1
    11    42    41    2
    12    55    56    1
    13    41    40    1
    14    35    36    1
    15    40    43    1
    16    56    57    1
    17    43    44    1
    18    23    22    2
    19    36    38   am
    20    36    37    2
    21    73    74    1
    22    57    58    2
    23    61    62    1
    24    44    45    1
    25    22    21    1
    26    63    62    1
    27    63    64    2
    28    65    62    1
    29    65    66    1
    30    60    58    1
    31    58    59    1
    32    74    75    1
    33    74    77    1
    34    67    66   ar
    35    67    69   ar
    36    75    76    2
    37    21    24    1
    38    21    20    1
    39    66    68   ar
    40    45    46    1
    41    24    25    1
    42    77    78    1
    43    69    71   ar
    44    46    47    2
    45    25    26    1
    46    26    27    1
    47    81    82    1
    48    68    70   ar
    49    27    28    2
    50    47    48    1
    51    47    49    1
    52    71    70   ar
    53    71    72    1
    54    28    29    1
    55    28    30    1
    56    78    79   ar
    57    78    80   ar
    58    83    82    1
    59    83    84    2
    60    82    85    1
    61    12    11    2
    62    85    86    1
    63    89    90    1
    64    87    86   ar
    65     4     3    2
    66    92    91    2
    67   104   102    1
    68    96    95   ar
    69    86    88   ar
    70    11    10    1
    71    10    13    1
    72    10     9    1
    73     7     5    1
    74    90    93    1
    75    90    91    1
    76    93    94    1
    77     3     9   am
    78     3     2    1
    79    14    13    1
    80    14    15    1
    81    15    16    1
    82    95    94    1
    83    95    97   ar
    84   102   103    1
    85   102    99    1
    86     8     6    1
    87     2     5    1
    88     2     1    1
    89     5     6    1
    90    98    99    1
    91    99   100    1
    92    16    17    2
    93    19    17    1
    94    17    18    1
    95   100   101    2
