@<TRIPOS>MOLECULE
tmp/3asjA00.pdb
 118 108 0 0 0
SMALL
GASTEIGER

@<TRIPOS>ATOM
      1  N         38.8520  -55.6580  -43.6620 N.3    83  ILE83      -0.1231
      2  CA        38.5120  -54.2410  -43.4340 C.3    83  ILE83       0.1692
      3  C         39.5440  -53.5000  -42.5640 C.2    83  ILE83       0.2591
      4  O         39.9990  -52.4140  -42.9180 O.2    83  ILE83      -0.2718
      5  CB        37.0580  -54.0790  -42.8900 C.3    83  ILE83       0.0266
      6  CG1       36.0510  -54.4620  -43.9800 C.3    83  ILE83       0.0019
      7  CG2       36.7660  -52.6370  -42.4180 C.3    83  ILE83       0.0020
      8  CD1       36.0410  -53.5030  -45.2310 C.3    83  ILE83       0.0001
      9  N         39.9240  -54.0940  -41.4400 N.am   84  ARG84      -0.1980
     10  CA        40.9230  -53.4890  -40.5760 C.3    84  ARG84       0.1597
     11  C         42.1600  -53.1350  -41.3950 C.2    84  ARG84       0.2287
     12  O         42.6780  -52.0440  -41.2930 O.2    84  ARG84      -0.2864
     13  CB        41.2700  -54.4250  -39.4070 C.3    84  ARG84       0.0334
     14  CG        42.0410  -53.7360  -38.2710 C.3    84  ARG84       0.0492
     15  CD        41.9010  -54.4210  -36.8680 C.3    84  ARG84       0.2205
     16  NE        40.5810  -55.0220  -36.5910 N.pl3  84  ARG84      -0.0865
     17  CZ        39.4170  -54.3630  -36.4500 C.cat  84  ARG84       0.5346
     18  NH1       38.3030  -55.0560  -36.1890 N.pl3  84  ARG84       0.1354
     19  NH2       39.3420  -53.0290  -36.5690 N.pl3  84  ARG84       0.1354
     20  N         41.7200  -50.2600  -44.0840 N.3    87  ARG87      -0.1245
     21  CA        41.7380  -48.9880  -43.3560 C.3    87  ARG87       0.1563
     22  C         43.1590  -48.4470  -43.0960 C.2    87  ARG87       0.2260
     23  O         43.4210  -47.2650  -43.3330 O.2    87  ARG87      -0.2867
     24  CB        40.9640  -49.1010  -42.0520 C.3    87  ARG87       0.0307
     25  CG        39.4600  -49.1530  -42.2020 C.3    87  ARG87       0.0489
     26  CD        38.8440  -49.5960  -40.8930 C.3    87  ARG87       0.2205
     27  NE        37.3920  -49.4970  -40.9160 N.pl3  87  ARG87      -0.0865
     28  CZ        36.5710  -50.0960  -40.0510 C.cat  87  ARG87       0.5346
     29  NH1       37.0380  -50.8510  -39.0710 N.pl3  87  ARG87       0.1354
     30  NH2       35.2690  -49.9280  -40.1620 N.pl3  87  ARG87       0.1354
     31  N         35.6530  -43.1660  -40.8070 N.3    95  ASN95      -0.1240
     32  CA        34.5910  -44.1210  -40.8430 C.3    95  ASN95       0.1653
     33  C         33.2520  -43.3600  -40.7110 C.2    95  ASN95       0.2266
     34  O         33.0050  -42.6630  -39.7180 O.2    95  ASN95      -0.2867
     35  CB        34.7970  -45.1130  -39.7090 C.3    95  ASN95       0.1155
     36  CG        33.6780  -46.1210  -39.6020 C.2    95  ASN95       0.2627
     37  OD1       33.6140  -47.0780  -40.3570 O.2    95  ASN95      -0.2716
     38  ND2       32.7890  -45.9090  -38.6530 N.am   95  ASN95      -0.0877
     39  N         29.1350  -43.4540  -40.6270 N.3    97  ARG97      -0.1245
     40  CA        28.0080  -44.3580  -40.3000 C.3    97  ARG97       0.1563
     41  C         26.6630  -43.6480  -40.0990 C.2    97  ARG97       0.2260
     42  O         26.3840  -43.1200  -39.0160 O.2    97  ARG97      -0.2867
     43  CB        28.3300  -45.1650  -39.0550 C.3    97  ARG97       0.0307
     44  CG        29.4590  -46.1550  -39.2250 C.3    97  ARG97       0.0489
     45  CD        28.9510  -47.4800  -39.6780 C.3    97  ARG97       0.2205
     46  NE        27.8000  -47.8710  -38.8940 N.pl3  97  ARG97      -0.0865
     47  CZ        27.7870  -48.8740  -38.0310 C.cat  97  ARG97       0.5346
     48  NH1       26.6690  -49.1500  -37.3700 N.pl3  97  ARG97       0.1354
     49  NH2       28.8820  -49.6100  -37.8490 N.pl3  97  ARG97       0.1354
     50  N         33.5250  -41.5510  -37.2290 N.3   117  ARG117     -0.1245
     51  CA        34.5480  -41.9850  -36.2920 C.3   117  ARG117      0.1563
     52  C         35.9330  -42.0060  -36.8800 C.2   117  ARG117      0.2260
     53  O         36.1220  -42.3890  -38.0280 O.2   117  ARG117     -0.2867
     54  CB        34.2150  -43.3080  -35.5740 C.3   117  ARG117      0.0307
     55  CG        34.6090  -44.5520  -36.2730 C.3   117  ARG117      0.0489
     56  CD        35.0780  -45.6150  -35.3260 C.3   117  ARG117      0.2205
     57  NE        34.6690  -46.8820  -35.8890 N.pl3 117  ARG117     -0.0865
     58  CZ        35.2120  -48.0650  -35.6370 C.cat 117  ARG117      0.5346
     59  NH1       34.7190  -49.1340  -36.2380 N.pl3 117  ARG117      0.1354
     60  NH2       36.2260  -48.1930  -34.8050 N.pl3 117  ARG117      0.1354
     61  N         42.8600  -48.2730  -31.4750 N.3   124  TYR124     -0.1241
     62  CA        43.0410  -49.1880  -32.5980 C.3   124  TYR124      0.1605
     63  C         44.4250  -49.1170  -33.1870 C.2   124  TYR124      0.2264
     64  O         44.7070  -49.6740  -34.2290 O.2   124  TYR124     -0.2867
     65  CB        41.9920  -48.9500  -33.6890 C.3   124  TYR124      0.0534
     66  CG        40.6160  -49.4670  -33.3360 C.ar  124  TYR124     -0.0201
     67  CD1       39.9920  -50.4430  -34.1070 C.ar  124  TYR124     -0.0009
     68  CD2       39.9320  -48.9600  -32.2320 C.ar  124  TYR124     -0.0009
     69  CE1       38.7000  -50.9040  -33.7760 C.ar  124  TYR124      0.0417
     70  CE2       38.6800  -49.4060  -31.9010 C.ar  124  TYR124      0.0417
     71  CZ        38.0670  -50.3700  -32.6600 C.ar  124  TYR124      0.1957
     72  OH        36.8200  -50.7760  -32.2740 O.3   124  TYR124     -0.2866
     73  N         33.0560  -46.5490  -32.5360 N.3   227  ASP227     -0.1239
     74  CA        32.6230  -47.9040  -32.7970 C.3   227  ASP227      0.1674
     75  C         31.3940  -48.1710  -31.9570 C.2   227  ASP227      0.2266
     76  O         30.4250  -48.7450  -32.4600 O.2   227  ASP227     -0.2867
     77  CB        33.7210  -48.9190  -32.4800 C.3   227  ASP227      0.1410
     78  CG        33.1970  -50.3340  -32.3920 C.2   227  ASP227      0.3668
     79  OD1       32.3630  -50.7330  -33.2320 O.co2 227  ASP227     -0.2456
     80  OD2       33.5910  -51.0520  -31.4660 O.co2 227  ASP227     -0.2456
     81  N         28.2390  -45.7880  -33.0100 N.3   230  SER230     -0.1202
     82  CA        27.5900  -46.1110  -34.2740 C.3   230  SER230      0.2020
     83  C         26.6410  -47.2490  -34.0950 C.2   230  SER230      0.2618
     84  O         25.5760  -47.2470  -34.6500 O.2   230  SER230     -0.2717
     85  CB        28.5880  -46.4530  -35.3640 C.3   230  SER230      0.2103
     86  OG        29.1700  -45.2670  -35.8370 O.3   230  SER230     -0.2182
     87  N         27.0370  -48.2290  -33.3030 N.am  231  ASP231     -0.1973
     88  CA        26.2270  -49.4350  -33.1650 C.3   231  ASP231      0.1709
     89  C         25.0130  -49.2110  -32.2490 C.2   231  ASP231      0.2293
     90  O         23.9290  -49.6980  -32.5240 O.2   231  ASP231     -0.2864
     91  CB        27.0950  -50.6290  -32.7620 C.3   231  ASP231      0.1436
     92  CG        27.8440  -51.2130  -33.9400 C.2   231  ASP231      0.3671
     93  OD1       27.6400  -50.7530  -35.0770 O.co2 231  ASP231     -0.2456
     94  OD2       28.6280  -52.1560  -33.7500 O.co2 231  ASP231     -0.2456
     95  N         21.9170  -53.8420  -37.3470 N.3   240  LEU240     -0.1245
     96  CA        23.0360  -53.9400  -38.2800 C.3   240  LEU240      0.1561
     97  C         22.6240  -54.4110  -39.6810 C.2   240  LEU240      0.2260
     98  O         23.3250  -54.1510  -40.6730 O.2   240  LEU240     -0.2867
     99  CB        24.1080  -54.8940  -37.7340 C.3   240  LEU240      0.0270
    100  CG        25.0570  -54.5330  -36.5750 C.3   240  LEU240      0.0019
    101  CD1       26.4300  -55.1180  -36.8520 C.3   240  LEU240      0.0001
    102  CD2       25.1860  -53.0220  -36.3330 C.3   240  LEU240      0.0001
    103  N         30.7130  -50.4280  -47.4090 N.3   256  GLU256     -0.1245
    104  CA        30.3400  -51.7840  -47.0470 C.3   256  GLU256      0.1567
    105  C         29.1950  -51.8240  -46.0550 C.2   256  GLU256      0.2260
    106  O         29.1080  -50.9580  -45.1750 O.2   256  GLU256     -0.2867
    107  CB        31.5260  -52.5620  -46.4760 C.3   256  GLU256      0.0388
    108  CG        32.2120  -51.8970  -45.2960 C.3   256  GLU256      0.1160
    109  CD        32.6500  -52.9180  -44.2460 C.2   256  GLU256      0.3649
    110  OE1       33.2020  -52.4960  -43.2010 O.co2 256  GLU256     -0.2457
    111  OE2       32.4380  -54.1430  -44.4660 O.co2 256  GLU256     -0.2457
    112  N         27.4540  -53.3280  -42.7230 N.3   258  VAL258     -0.1245
    113  CA        28.0620  -53.6990  -41.4540 C.3   258  VAL258      0.1561
    114  C         27.5690  -55.0660  -40.9410 C.2   258  VAL258      0.2260
    115  O         28.0590  -55.5630  -39.9450 O.2   258  VAL258     -0.2867
    116  CB        27.8380  -52.5940  -40.3690 C.3   258  VAL258      0.0252
    117  CG1       28.6710  -52.8730  -39.1520 C.3   258  VAL258      0.0019
    118  CG2       28.1760  -51.2050  -40.9110 C.3   258  VAL258      0.0019
@<TRIPOS>BOND
     1   103   104    1
     2   104   107    1
     3   104   105    1
     4   107   108    1
     5   105   106    2
     6   108   109    1
     7     8     6    1
     8   111   109   ar
     9   109   110   ar
    10    20    21    1
    11     6     5    1
    12     1     2    1
    13     2     5    1
    14     2     3    1
    15    21    22    1
    16    21    24    1
    17    23    22    2
    18     4     3    2
    19     5     7    1
    20   112   113    1
    21     3     9   am
    22    25    24    1
    23    25    26    1
    24   113   114    1
    25   113   116    1
    26     9    10    1
    27    11    12    2
    28    11    10    1
    29   114   115    2
    30    27    26    1
    31    27    28    2
    32   118   116    1
    33    32    31    1
    34    32    33    1
    35    32    35    1
    36    33    34    2
    37    98    97    2
    38    39    40    1
    39    10    13    1
    40   116   117    1
    41    37    36    2
    42    40    41    1
    43    40    43    1
    44    30    28    1
    45    41    42    2
    46    28    29    1
    47    35    36    1
    48    97    96    1
    49    45    44    1
    50    45    46    1
    51    36    38   am
    52    13    14    1
    53    44    43    1
    54    46    47    2
    55    96    99    1
    56    96    95    1
    57    14    15    1
    58    47    49    1
    59    47    48    1
    60    53    52    2
    61    99   100    1
    62    50    51    1
    63    52    51    1
    64    15    16    1
    65   101   100    1
    66    16    17    2
    67   100   102    1
    68    19    17    1
    69    17    18    1
    70    51    54    1
    71    55    54    1
    72    55    56    1
    73    59    58    1
    74    57    58    2
    75    57    56    1
    76    86    85    1
    77    58    60    1
    78    85    82    1
    79    93    92   ar
    80    84    83    2
    81    82    83    1
    82    82    81    1
    83    64    63    2
    84    67    69   ar
    85    67    66   ar
    86    83    87   am
    87    92    94   ar
    88    92    91    1
    89    69    71   ar
    90    65    66    1
    91    65    62    1
    92    66    68   ar
    93    87    88    1
    94    79    78   ar
    95    63    62    1
    96    88    91    1
    97    88    89    1
    98    74    73    1
    99    74    77    1
   100    74    75    1
   101    71    72    1
   102    71    70   ar
   103    62    61    1
   104    90    89    2
   105    77    78    1
   106    76    75    2
   107    78    80   ar
   108    68    70   ar
