@<TRIPOS>MOLECULE
tmp/3asjA01.pdb
 97 89 0 0 0
SMALL
GASTEIGER

@<TRIPOS>ATOM
      1  N         25.8360  -43.6030  -41.1460 N.3    98  PRO98      -0.2116
      2  CA        24.4960  -43.0510  -40.9950 C.3    98  PRO98       0.1372
      3  C         23.5960  -43.8880  -40.0800 C.2    98  PRO98       0.2244
      4  O         23.6460  -45.1290  -40.1130 O.2    98  PRO98      -0.2868
      5  CB        23.9340  -43.1090  -42.4140 C.3    98  PRO98       0.0268
      6  CG        25.0950  -43.1260  -43.2800 C.3    98  PRO98       0.0207
      7  CD        26.1570  -43.8770  -42.5600 C.3    98  PRO98       0.0892
      8  N         19.5860  -43.5350  -39.8560 N.3   100  LYS100     -0.1245
      9  CA        18.4450  -42.8250  -40.4010 C.3   100  LYS100      0.1561
     10  C         17.2560  -43.7610  -40.2660 C.2   100  LYS100      0.2260
     11  O         17.3610  -44.9690  -40.5660 O.2   100  LYS100     -0.2867
     12  CB        18.7550  -42.4410  -41.8470 C.3   100  LYS100      0.0271
     13  CG        17.5820  -42.1550  -42.7800 C.3   100  LYS100      0.0035
     14  CD        17.2370  -40.6850  -42.8420 C.3   100  LYS100      0.0206
     15  CE        16.7980  -40.2850  -44.2290 C.3   100  LYS100      0.1093
     16  NZ        18.0170  -40.1750  -45.0750 N.3   100  LYS100     -0.1314
     17  N         13.8740  -45.7320  -41.0110 N.3   102  ARG102     -0.1245
     18  CA        13.4010  -46.4240  -42.2090 C.3   102  ARG102      0.1563
     19  C         12.0080  -46.9440  -41.8810 C.2   102  ARG102      0.2260
     20  O         11.7300  -47.2190  -40.7040 O.2   102  ARG102     -0.2867
     21  CB        14.2710  -47.6540  -42.5010 C.3   102  ARG102      0.0307
     22  CG        15.7410  -47.4080  -42.8350 C.3   102  ARG102      0.0489
     23  CD        15.9460  -46.8800  -44.2490 C.3   102  ARG102      0.2205
     24  NE        17.2760  -46.2990  -44.4330 N.pl3 102  ARG102     -0.0865
     25  CZ        17.5160  -45.1940  -45.1450 C.cat 102  ARG102      0.5346
     26  NH1       18.7480  -44.7230  -45.2490 N.pl3 102  ARG102      0.1354
     27  NH2       16.5230  -44.5580  -45.7680 N.pl3 102  ARG102      0.1354
     28  N         24.5620  -30.6650  -45.0790 N.3   160  ARG160     -0.1245
     29  CA        23.3300  -31.1950  -44.5060 C.3   160  ARG160      0.1563
     30  C         22.4360  -30.0610  -43.9900 C.2   160  ARG160      0.2260
     31  O         22.9500  -28.9920  -43.6150 O.2   160  ARG160     -0.2867
     32  CB        23.6330  -32.2640  -43.4510 C.3   160  ARG160      0.0307
     33  CG        23.9480  -33.6100  -44.0730 C.3   160  ARG160      0.0489
     34  CD        24.3230  -34.6600  -43.0700 C.3   160  ARG160      0.2205
     35  NE        23.3250  -34.8030  -42.0060 N.pl3 160  ARG160     -0.0865
     36  CZ        22.5410  -35.8730  -41.8320 C.cat 160  ARG160      0.5346
     37  NH1       22.6170  -36.8930  -42.6560 N.pl3 160  ARG160      0.1354
     38  NH2       21.6810  -35.9230  -40.8230 N.pl3 160  ARG160      0.1354
     39  N         24.4290  -49.0430  -43.5950 N.3   244  PRO244     -0.2116
     40  CA        25.4170  -48.7600  -44.6290 C.3   244  PRO244      0.1372
     41  C         26.6460  -48.1370  -43.9850 C.2   244  PRO244      0.2244
     42  O         26.5160  -47.5650  -42.9070 O.2   244  PRO244     -0.2868
     43  CB        24.7190  -47.6910  -45.4580 C.3   244  PRO244      0.0268
     44  CG        23.9320  -46.9330  -44.4590 C.3   244  PRO244      0.0207
     45  CD        23.4120  -47.9690  -43.5000 C.3   244  PRO244      0.0892
     46  N         22.3060  -49.2580  -49.8360 N.3   278  LEU278     -0.1245
     47  CA        22.4750  -47.9310  -49.2290 C.3   278  LEU278      0.1561
     48  C         23.9550  -47.5380  -49.1660 C.2   278  LEU278      0.2260
     49  O         24.3140  -46.3350  -49.2800 O.2   278  LEU278     -0.2867
     50  CB        21.7690  -47.8260  -47.8740 C.3   278  LEU278      0.0270
     51  CG        20.2330  -48.0710  -47.8620 C.3   278  LEU278      0.0019
     52  CD1       19.7060  -48.2520  -46.4400 C.3   278  LEU278      0.0001
     53  CD2       19.4090  -47.0070  -48.5830 C.3   278  LEU278      0.0001
     54  N         24.4880  -46.3020  -52.4690 N.3   281  ALA281     -0.1231
     55  CA        24.0120  -44.9140  -52.4200 C.3   281  ALA281      0.1694
     56  C         25.0350  -43.9790  -51.7900 C.2   281  ALA281      0.2591
     57  O         25.3020  -42.9220  -52.3480 O.2   281  ALA281     -0.2718
     58  CB        22.6690  -44.7970  -51.6980 C.3   281  ALA281      0.0304
     59  N         25.6220  -44.3630  -50.6500 N.am  282  MET282     -0.1979
     60  CA        26.6470  -43.5370  -49.9980 C.3   282  MET282      0.1605
     61  C         27.7920  -43.3000  -50.9590 C.2   282  MET282      0.2287
     62  O         28.3020  -42.1870  -51.0800 O.2   282  MET282     -0.2864
     63  CB        27.1900  -44.2090  -48.7520 C.3   282  MET282      0.0413
     64  CG        26.3370  -44.0780  -47.5140 C.3   282  MET282      0.0598
     65  SD        27.0850  -44.9000  -46.0880 S.3   282  MET282     -0.1393
     66  CE        28.4230  -43.7480  -45.7630 C.3   282  MET282      0.0692
     67  N         26.9480  -40.7670  -53.6620 N.3   285  ASP285     -0.1239
     68  CA        27.1360  -39.4980  -52.9930 C.3   285  ASP285      0.1674
     69  C         28.6310  -39.0790  -52.8860 C.2   285  ASP285      0.2266
     70  O         29.0040  -37.9620  -53.2890 O.2   285  ASP285     -0.2867
     71  CB        26.4680  -39.5430  -51.6220 C.3   285  ASP285      0.1410
     72  CG        26.1450  -38.1620  -51.0910 C.2   285  ASP285      0.3668
     73  OD1       26.7580  -37.7570  -50.0870 O.co2 285  ASP285     -0.2456
     74  OD2       25.2860  -37.4760  -51.6790 O.co2 285  ASP285     -0.2456
     75  N         22.1300  -40.8410  -55.8300 N.3   293  ALA293     -0.1231
     76  CA        22.2060  -41.3860  -54.4700 C.3   293  ALA293      0.1694
     77  C         20.8510  -41.2710  -53.7290 C.2   293  ALA293      0.2591
     78  O         20.3410  -42.2610  -53.1530 O.2   293  ALA293     -0.2718
     79  CB        23.3220  -40.6860  -53.6780 C.3   293  ALA293      0.0304
     80  N         20.2740  -40.0620  -53.7840 N.am  294  LYS294     -0.1980
     81  CA        18.9680  -39.7870  -53.1920 C.3   294  LYS294      0.1596
     82  C         17.8700  -40.6410  -53.8200 C.2   294  LYS294      0.2287
     83  O         16.9950  -41.1490  -53.1010 O.2   294  LYS294     -0.2864
     84  CB        18.6210  -38.2980  -53.2760 C.3   294  LYS294      0.0298
     85  CG        19.2880  -37.4580  -52.1740 C.3   294  LYS294      0.0038
     86  CD        18.7520  -36.0250  -52.1890 C.3   294  LYS294      0.0206
     87  CE        19.5680  -35.0860  -53.1010 C.3   294  LYS294      0.1093
     88  NZ        20.5430  -34.2020  -52.3540 N.3   294  LYS294     -0.1314
     89  N         18.2420  -44.2570  -52.5350 N.3   297  GLU297     -0.1245
     90  CA        17.7310  -44.3720  -51.1830 C.3   297  GLU297      0.1567
     91  C         16.2000  -44.3630  -51.1360 C.2   297  GLU297      0.2260
     92  O         15.5860  -45.2170  -50.4800 O.2   297  GLU297     -0.2867
     93  CB        18.3270  -43.3120  -50.2660 C.3   297  GLU297      0.0388
     94  CG        17.6130  -43.2660  -48.9130 C.3   297  GLU297      0.1160
     95  CD        18.0540  -42.1260  -48.0310 C.2   297  GLU297      0.3649
     96  OE1       18.1660  -40.9770  -48.5330 O.co2 297  GLU297     -0.2457
     97  OE2       18.2920  -42.3960  -46.8300 O.co2 297  GLU297     -0.2457
@<TRIPOS>BOND
     1    75    76    1
     2    76    77    1
     3    76    79    1
     4    82    81    1
     5    82    83    2
     6    80    77   am
     7    80    81    1
     8    77    78    2
     9    67    68    1
    10    70    69    2
    11    84    81    1
    12    84    85    1
    13    87    88    1
    14    87    86    1
    15    68    69    1
    16    68    71    1
    17    89    90    1
    18    54    55    1
    19    55    56    1
    20    55    58    1
    21    57    56    2
    22    86    85    1
    23    56    59   am
    24    74    72   ar
    25    71    72    1
    26    90    91    1
    27    90    93    1
    28    91    92    2
    29    72    73   ar
    30    62    61    2
    31    61    60    1
    32    59    60    1
    33    93    94    1
    34    60    63    1
    35    46    47    1
    36    49    48    2
    37    47    48    1
    38    47    50    1
    39    94    95    1
    40    63    64    1
    41    53    51    1
    42    96    95   ar
    43    95    97   ar
    44    50    51    1
    45    51    52    1
    46    64    65    1
    47    65    66    1
    48    27    25    1
    49    43    40    1
    50    43    44    1
    51    26    25    1
    52    25    24    2
    53    28    29    1
    54    16    15    1
    55    40    41    1
    56    40    39    1
    57    29    30    1
    58    29    32    1
    59    44    45    1
    60    24    23    1
    61    23    22    1
    62    15    14    1
    63    33    32    1
    64    33    34    1
    65    30    31    2
    66    41    42    2
    67    39    45    1
    68     6     7    1
    69     6     5    1
    70    34    35    1
    71    14    13    1
    72    22    21    1
    73    13    12    1
    74    37    36    1
    75     7     1    1
    76    21    18    1
    77     5     2    1
    78    18    19    1
    79    18    17    1
    80    35    36    2
    81    19    20    2
    82    12     9    1
    83    36    38    1
    84     1     2    1
    85     2     3    1
    86    11    10    2
    87     9    10    1
    88     9     8    1
    89     4     3    2
