@<TRIPOS>MOLECULE
tmp/3aslA00.pdb
 140 136 0 0 0
SMALL
GASTEIGER

@<TRIPOS>ATOM
      1  N          1.9890   12.6020   -4.6350 N.3    18  CYS18      -0.1221
      2  CA         3.1590   11.7280   -4.7400 C.3    18  CYS18       0.1808
      3  C          4.2490   12.2670   -5.6390 C.2    18  CYS18       0.2601
      4  O          5.3550   11.7420   -5.6370 O.2    18  CYS18      -0.2717
      5  CB         2.8050   10.2970   -5.1600 C.3    18  CYS18       0.0970
      6  SG         2.2320   10.0890   -6.8230 S.3    18  CYS18      -0.0800
      7  N          3.9670   13.3150   -6.3980 N.am   19  ALA19      -0.1979
      8  CA         4.9860   13.9520   -7.2430 C.3    19  ALA19       0.1597
      9  C          5.1440   15.4260   -6.7980 C.2    19  ALA19       0.2287
     10  O          4.8550   15.7540   -5.6500 O.2    19  ALA19      -0.2864
     11  CB         4.6270   13.7790   -8.7300 C.3    19  ALA19       0.0319
     12  N          6.0640   14.4100  -12.5520 N.3    26  ARG26      -0.1245
     13  CA         6.7100   13.2090  -12.0220 C.3    26  ARG26       0.1563
     14  C          8.1630   13.1010  -12.3560 C.2    26  ARG26       0.2260
     15  O          8.8730   12.2810  -11.8100 O.2    26  ARG26      -0.2867
     16  CB         6.0200   11.9290  -12.5400 C.3    26  ARG26       0.0307
     17  CG         4.5680   11.8490  -12.2470 C.3    26  ARG26       0.0489
     18  CD         3.9930   10.5620  -12.7550 C.3    26  ARG26       0.2205
     19  NE         2.6060   10.4930  -12.4150 N.pl3  26  ARG26      -0.0865
     20  CZ         2.1170   10.0760  -11.2500 C.cat  26  ARG26       0.5346
     21  NH1        2.8660    9.5160  -10.3290 N.pl3  26  ARG26       0.1354
     22  NH2        0.8350   10.1110  -11.0760 N.pl3  26  ARG26       0.1354
     23  N         12.6990   13.0490   -9.9350 N.3    29  PRO29      -0.2102
     24  CA        12.4830   12.8830   -8.5000 C.3    29  PRO29       0.1504
     25  C         13.7740   13.0630   -7.6740 C.2    29  PRO29       0.2575
     26  O         13.7140   13.3640   -6.4770 O.2    29  PRO29      -0.2718
     27  CB        11.9500   11.4540   -8.3960 C.3    29  PRO29       0.0282
     28  CG        12.5340   10.7720   -9.5920 C.3    29  PRO29       0.0208
     29  CD        12.4600   11.8000  -10.6700 C.3    29  PRO29       0.0893
     30  N         14.9220   12.9030   -8.3220 N.am   30  ASP30      -0.1974
     31  CA        16.2090   13.1780   -7.7010 C.3    30  ASP30       0.1708
     32  C         16.4540   14.6520   -7.4450 C.2    30  ASP30       0.2293
     33  O         17.3750   15.0100   -6.7080 O.2    30  ASP30      -0.2864
     34  CB        17.3610   12.6270   -8.5410 C.3    30  ASP30       0.1436
     35  CG        17.2970   13.0690   -9.9860 C.2    30  ASP30       0.3671
     36  OD1       16.2370   12.8460  -10.6050 O.co2  30  ASP30      -0.2456
     37  OD2       18.3100   13.5900  -10.4650 O.co2  30  ASP30      -0.2456
     38  N         13.6550   16.5810   -6.5030 N.3    32  GLN32      -0.1231
     39  CA        12.4900   16.9380   -5.6970 C.3    32  GLN32       0.1698
     40  C         12.9050   16.8650   -4.2310 C.2    32  GLN32       0.2592
     41  O         13.2290   15.8040   -3.7040 O.2    32  GLN32      -0.2718
     42  CB        11.3050   16.0010   -5.9670 C.3    32  GLN32       0.0381
     43  CG        10.7220   16.1090   -7.3960 C.3    32  GLN32       0.0905
     44  CD         9.5370   15.1740   -7.6320 C.2    32  GLN32       0.2608
     45  OE1        8.7420   14.9400   -6.7180 O.2    32  GLN32      -0.2717
     46  NE2        9.3880   14.6780   -8.8490 N.am   32  GLN32      -0.0878
     47  N         12.9410   18.0210   -3.5960 N.am   33  LEU33      -0.1966
     48  CA        13.2380   18.0930   -2.1610 C.3    33  LEU33       0.1728
     49  C         12.0530   17.6880   -1.3110 C.2    33  LEU33       0.2616
     50  O         10.9090   18.0120   -1.6500 O.2    33  LEU33      -0.2715
     51  CB        13.5840   19.5070   -1.7820 C.3    33  LEU33       0.0311
     52  CG        14.6460   20.2310   -2.5530 C.3    33  LEU33       0.0022
     53  CD1       14.9110   21.6080   -1.8970 C.3    33  LEU33       0.0001
     54  CD2       15.9120   19.3620   -2.6090 C.3    33  LEU33       0.0001
     55  N         12.3200   16.9540   -0.2340 N.am   34  MET34      -0.1963
     56  CA        11.2910   16.5930    0.7330 C.3    34  MET34       0.1736
     57  C         11.2700   17.5570    1.8870 C.2    34  MET34       0.2617
     58  O         12.2700   17.7620    2.5610 O.2    34  MET34      -0.2715
     59  CB        11.5090   15.1770    1.2840 C.3    34  MET34       0.0427
     60  CG        11.6030   14.1230    0.2620 C.3    34  MET34       0.0599
     61  SD        10.2150   13.9930   -0.8840 S.3    34  MET34      -0.1393
     62  CE         8.8370   13.6290    0.1860 C.3    34  MET34       0.0692
     63  N         10.0980   18.0970    2.1710 N.am   35  CYS35      -0.1954
     64  CA         9.9480   19.0110    3.3000 C.3    35  CYS35       0.1843
     65  C          9.9670   18.2770    4.6420 C.2    35  CYS35       0.2625
     66  O          9.2620   17.2970    4.8100 O.2    35  CYS35      -0.2714
     67  CB         8.6200   19.7560    3.1780 C.3    35  CYS35       0.0997
     68  SG         8.2920   20.8450    4.5770 S.3    35  CYS35      -0.0797
     69  N         10.7310   18.7690    5.6140 N.am   36  ASP36      -0.1971
     70  CA        10.8440   18.0800    6.9010 C.3    36  ASP36       0.1709
     71  C          9.7070   18.3710    7.8730 C.2    36  ASP36       0.2293
     72  O          9.7540   17.8820    8.9890 O.2    36  ASP36      -0.2864
     73  CB        12.2280   18.3870    7.4820 C.3    36  ASP36       0.1436
     74  CG        13.3160   17.6680    6.6990 C.2    36  ASP36       0.3671
     75  OD1       13.2780   16.4180    6.6220 O.co2  36  ASP36      -0.2456
     76  OD2       14.1760   18.3190    6.1170 O.co2  36  ASP36      -0.2456
     77  N          6.4620   16.6190    4.5970 N.3    39  ASP39      -0.1239
     78  CA         6.9540   15.4770    3.7990 C.3    39  ASP39       0.1674
     79  C          6.4410   15.4020    2.3470 C.2    39  ASP39       0.2266
     80  O          6.4540   14.3470    1.7380 O.2    39  ASP39      -0.2867
     81  CB         6.7310   14.1270    4.4980 C.3    39  ASP39       0.1410
     82  CG         7.8250   13.1090    4.1400 C.2    39  ASP39       0.3668
     83  OD1        8.9860   13.5450    3.9570 O.co2  39  ASP39      -0.2456
     84  OD2        7.5600   11.8980    4.0480 O.co2  39  ASP39      -0.2456
     85  N          6.9410   16.8010   -1.7120 N.3    41  ALA41      -0.1245
     86  CA         8.0680   16.8710   -2.6250 C.3    41  ALA41       0.1562
     87  C          7.9610   18.0940   -3.5140 C.2    41  ALA41       0.2260
     88  O          6.8560   18.4670   -3.9130 O.2    41  ALA41      -0.2867
     89  CB         8.1480   15.6170   -3.4450 C.3    41  ALA41       0.0290
     90  N         20.4890   20.6430   -4.7790 N.3    54  VAL54      -0.1231
     91  CA        19.9500   20.1630   -3.5130 C.3    54  VAL54       0.1678
     92  C         20.7040   20.8210   -2.3320 C.2    54  VAL54       0.2434
     93  O         21.9370   20.7390   -2.2310 O.2    54  VAL54      -0.2733
     94  CB        20.0470   18.6220   -3.4420 C.3    54  VAL54       0.0265
     95  CG1       19.5640   18.1140   -2.1030 C.3    54  VAL54       0.0020
     96  CG2       19.2480   17.9810   -4.5840 C.3    54  VAL54       0.0020
     97  N         19.9580   21.5000   -1.4500 N.am   55  PRO55      -0.2718
     98  CA        20.5790   22.1030   -0.2830 C.3    55  PRO55       0.1535
     99  C         21.4100   21.1110    0.5560 C.2    55  PRO55       0.2599
    100  O         20.9860   19.9540    0.7490 O.2    55  PRO55      -0.2715
    101  CB        19.3600   22.5620    0.5310 C.3    55  PRO55       0.0310
    102  CG        18.3330   22.9230   -0.5060 C.3    55  PRO55       0.0237
    103  CD        18.5160   21.8240   -1.5300 C.3    55  PRO55       0.0939
    104  N         22.5390   21.5970    1.0830 N.am   56  SER56      -0.1936
    105  CA        23.4970   20.7590    1.8280 C.3    56  SER56       0.2055
    106  C         23.0200   20.4330    3.2440 C.2    56  SER56       0.2643
    107  O         23.3740   19.3960    3.8240 O.2    56  SER56      -0.2714
    108  CB        24.8550   21.4480    1.8690 C.3    56  SER56       0.2130
    109  OG        25.3760   21.6050    0.5580 O.3    56  SER56      -0.2179
    110  N         22.2220   21.3300    3.8070 N.am   57  GLU57      -0.1963
    111  CA        21.8040   21.1960    5.1950 C.3    57  GLU57       0.1733
    112  C         20.8160   20.0510    5.3420 C.2    57  GLU57       0.2616
    113  O         20.0960   19.7110    4.3920 O.2    57  GLU57      -0.2715
    114  CB        21.2080   22.5080    5.7100 C.3    57  GLU57       0.0429
    115  CG        19.9140   22.9810    5.0300 C.3    57  GLU57       0.1163
    116  CD        20.1110   23.8250    3.7830 C.2    57  GLU57       0.3649
    117  OE1       21.2160   23.8160    3.1980 O.co2  57  GLU57      -0.2457
    118  OE2       19.1160   24.5080    3.4010 O.co2  57  GLU57      -0.2457
    119  N         20.7810   19.4380    6.5240 N.am   58  ASP58      -0.1971
    120  CA        19.9650   18.2370    6.6990 C.3    58  ASP58       0.1709
    121  C         18.4640   18.5010    6.6190 C.2    58  ASP58       0.2293
    122  O         17.7270   17.6740    6.0630 O.2    58  ASP58      -0.2864
    123  CB        20.2760   17.5320    8.0290 C.3    58  ASP58       0.1436
    124  CG        21.3370   16.4620    7.9150 C.2    58  ASP58       0.3671
    125  OD1       21.9630   16.3090    6.8450 O.co2  58  ASP58      -0.2456
    126  OD2       21.5380   15.7570    8.9330 O.co2  58  ASP58      -0.2456
    127  N         15.1500   20.8680    5.5770 N.3    60  TRP60      -0.1241
    128  CA        14.6360   21.8960    4.6730 C.3    60  TRP60       0.1605
    129  C         13.1230   21.9570    4.7960 C.2    60  TRP60       0.2264
    130  O         12.4810   20.9330    4.8880 O.2    60  TRP60      -0.2867
    131  CB        15.0460   21.5840    3.2190 C.3    60  TRP60       0.0550
    132  CG        14.4590   22.5290    2.2180 C.ar   60  TRP60       0.0003
    133  CD1       14.9860   23.7330    1.8050 C.ar   60  TRP60       0.0946
    134  CD2       13.2480   22.3350    1.4700 C.ar   60  TRP60       0.0152
    135  NE1       14.1450   24.3100    0.8660 N.ar   60  TRP60      -0.2442
    136  CE2       13.0750   23.4700    0.6450 C.ar   60  TRP60       0.0810
    137  CE3       12.2820   21.3160    1.4250 C.ar   60  TRP60       0.0012
    138  CZ2       11.9580   23.6230   -0.2030 C.ar   60  TRP60       0.0191
    139  CZ3       11.1630   21.4810    0.5800 C.ar   60  TRP60       0.0001
    140  CH2       11.0210   22.6150   -0.2280 C.ar   60  TRP60       0.0015
@<TRIPOS>BOND
     1    18    19    1
     2    18    17    1
     3    12    13    1
     4    16    17    1
     5    16    13    1
     6    19    20    2
     7    14    13    1
     8    14    15    2
     9    20    22    1
    10    20    21    1
    11    29    23    1
    12    29    28    1
    13    36    35   ar
    14    37    35   ar
    15    35    34    1
    16    23    24    1
    17    28    27    1
    18    46    44   am
    19    11     8    1
    20    34    31    1
    21    24    27    1
    22    24    25    1
    23    30    31    1
    24    30    25   am
    25    31    32    1
    26    25    26    2
    27    44    43    1
    28    44    45    2
    29    32    33    2
    30    43    42    1
    31     8     9    1
    32     8     7    1
    33     6     5    1
    34     9    10    2
    35    38    39    1
    36     7     3   am
    37    42    39    1
    38    39    40    1
    39     3     4    2
    40     3     2    1
    41     5     2    1
    42    90    91    1
    43     2     1    1
    44    96    94    1
    45    40    41    2
    46    40    47   am
    47    88    87    2
    48    47    48    1
    49    87    86    1
    50    91    94    1
    51    91    92    1
    52    89    86    1
    53    94    95    1
    54    86    85    1
    55    54    52    1
    56    52    53    1
    57    52    51    1
    58    92    93    2
    59    92    97   am
    60    48    51    1
    61    48    49    1
    62    50    49    2
    63   103    97    1
    64   103   102    1
    65    97    98    1
    66    49    55   am
    67    61    62    1
    68    61    60    1
    69   102   101    1
    70    98   101    1
    71    98    99    1
    72    55    56    1
    73   140   138   ar
    74   140   139   ar
    75   138   136   ar
    76    60    59    1
    77    99   100    2
    78    99   104   am
    79   109   108    1
    80   139   137   ar
    81   136   135   ar
    82   136   134   ar
    83    56    59    1
    84    56    57    1
    85   135   133   ar
    86   104   105    1
    87   137   134   ar
    88   134   132   ar
    89    80    79    2
    90   133   132   ar
    91   105   108    1
    92   105   106    1
    93    57    63   am
    94    57    58    2
    95    63    64    1
    96   132   131    1
    97    79    78    1
    98    67    64    1
    99    67    68    1
   100   117   116   ar
   101   131   128    1
   102   106   110   am
   103   106   107    2
   104    64    65    1
   105   118   116   ar
   106   116   115    1
   107    78    81    1
   108    78    77    1
   109   110   111    1
   110    83    82   ar
   111    84    82   ar
   112    82    81    1
   113   113   112    2
   114    65    66    2
   115    65    69   am
   116   128   129    1
   117   128   127    1
   118   129   130    2
   119   115   114    1
   120   111   112    1
   121   111   114    1
   122   112   119   am
   123    69    70    1
   124   122   121    2
   125    76    74   ar
   126   119   120    1
   127   121   120    1
   128    75    74   ar
   129    74    73    1
   130   120   123    1
   131   125   124   ar
   132    70    73    1
   133    70    71    1
   134    71    72    2
   135   124   123    1
   136   124   126   ar
