@<TRIPOS>MOLECULE
tmp/3aspA00.pdb
 103 100 0 0 0
SMALL
GASTEIGER

@<TRIPOS>ATOM
      1  N         24.4800    6.7380  -15.5220 N.3   107  ASP107     -0.1239
      2  CA        23.7640    6.0890  -16.6060 C.3   107  ASP107      0.1674
      3  C         23.5550    4.6220  -16.2500 C.2   107  ASP107      0.2266
      4  O         24.4520    3.9740  -15.7080 O.2   107  ASP107     -0.2867
      5  CB        24.5640    6.1640  -17.9090 C.3   107  ASP107      0.1410
      6  CG        24.4210    7.4980  -18.6290 C.2   107  ASP107      0.3668
      7  OD1       23.8740    8.4660  -18.0560 O.co2 107  ASP107     -0.2456
      8  OD2       24.8800    7.5640  -19.7870 O.co2 107  ASP107     -0.2456
      9  N         22.8850    0.7780  -17.4250 N.3   109  HIS109     -0.1241
     10  CA        23.0000   -0.1700  -18.5230 C.3   109  HIS109      0.1621
     11  C         22.3010   -1.4520  -18.1130 C.2   109  HIS109      0.2264
     12  O         22.8070   -2.2250  -17.2880 O.2   109  HIS109     -0.2867
     13  CB        24.4650   -0.3670  -18.8830 C.3   109  HIS109      0.0745
     14  CG        25.1490    0.9170  -19.2280 C.ar  109  HIS109      0.0817
     15  ND1       24.9290    1.5710  -20.4210 N.ar  109  HIS109     -0.2268
     16  CD2       25.9960    1.7000  -18.5180 C.ar  109  HIS109      0.1154
     17  CE1       25.6370    2.6870  -20.4440 C.ar  109  HIS109      0.1986
     18  NE2       26.2880    2.7920  -19.2990 N.ar  109  HIS109     -0.2212
     19  N         19.8410    1.1710  -22.4930 N.3   129  SER129     -0.1217
     20  CA        20.4810    2.1570  -21.6340 C.3   129  SER129      0.1889
     21  C         19.4910    3.2310  -21.2260 C.2   129  SER129      0.2288
     22  O         18.6160    3.6070  -22.0060 O.2   129  SER129     -0.2866
     23  CB        21.6970    2.7700  -22.3270 C.3   129  SER129      0.2089
     24  OG        22.7220    1.7990  -22.4540 O.3   129  SER129     -0.2183
     25  N         19.2210    7.0350  -19.1730 N.3   131  GLN131     -0.1245
     26  CA        19.7430    8.2060  -18.4820 C.3   131  GLN131      0.1566
     27  C         18.6790    8.7010  -17.5060 C.2   131  GLN131      0.2260
     28  O         17.4820    8.6390  -17.8000 O.2   131  GLN131     -0.2867
     29  CB        20.1530    9.2830  -19.4910 C.3   131  GLN131      0.0367
     30  CG        21.2780    8.8150  -20.4250 C.3   131  GLN131      0.0905
     31  CD        21.6180    9.8030  -21.5260 C.2   131  GLN131      0.2608
     32  OE1       21.8100    9.4120  -22.6810 O.2   131  GLN131     -0.2717
     33  NE2       21.7100   11.0800  -21.1770 N.am  131  GLN131     -0.0878
     34  N         17.7030    4.9920  -24.3340 N.3   147  ASP147     -0.1225
     35  CA        18.5310    5.8510  -25.1920 C.3   147  ASP147      0.1805
     36  C         18.2580    5.6220  -26.6740 C.2   147  ASP147      0.2597
     37  O         18.3340    6.5560  -27.4780 O.2   147  ASP147     -0.2718
     38  CB        20.0190    5.6190  -24.9240 C.3   147  ASP147      0.1424
     39  CG        20.5220    6.3360  -23.6870 C.2   147  ASP147      0.3668
     40  OD1       19.7280    7.0140  -22.9990 O.co2 147  ASP147     -0.2456
     41  OD2       21.7330    6.2220  -23.4050 O.co2 147  ASP147     -0.2456
     42  N         17.9570    4.3760  -27.0270 N.am  148  GLU148     -0.1979
     43  CA        17.7440    3.9990  -28.4250 C.3   148  GLU148      0.1602
     44  C         16.3700    3.3820  -28.6430 C.2   148  GLU148      0.2287
     45  O         15.7730    2.8090  -27.7240 O.2   148  GLU148     -0.2864
     46  CB        18.8300    3.0260  -28.9140 C.3   148  GLU148      0.0415
     47  CG        20.2790    3.4610  -28.6640 C.3   148  GLU148      0.1163
     48  CD        20.7840    4.5690  -29.5880 C.2   148  GLU148      0.3649
     49  OE1       19.9860    5.1690  -30.3440 O.co2 148  GLU148     -0.2457
     50  OE2       22.0050    4.8410  -29.5510 O.co2 148  GLU148     -0.2457
     51  N         25.1600   -2.8830  -15.1390 N.3   163  TRP163     -0.1241
     52  CA        26.3130   -2.0570  -14.7980 C.3   163  TRP163      0.1605
     53  C         25.9600   -0.5850  -14.9620 C.2   163  TRP163      0.2264
     54  O         24.9960   -0.2400  -15.6470 O.2   163  TRP163     -0.2867
     55  CB        27.5590   -2.4440  -15.6190 C.3   163  TRP163      0.0550
     56  CG        27.4410   -2.2600  -17.1070 C.ar  163  TRP163      0.0003
     57  CD1       26.7460   -3.0500  -17.9800 C.ar  163  TRP163      0.0946
     58  CD2       28.0630   -1.2370  -17.8980 C.ar  163  TRP163      0.0152
     59  NE1       26.8900   -2.5780  -19.2660 N.ar  163  TRP163     -0.2442
     60  CE2       27.6900   -1.4660  -19.2440 C.ar  163  TRP163      0.0810
     61  CE3       28.8970   -0.1480  -17.6010 C.ar  163  TRP163      0.0012
     62  CZ2       28.1210   -0.6400  -20.2960 C.ar  163  TRP163      0.0191
     63  CZ3       29.3310    0.6700  -18.6520 C.ar  163  TRP163      0.0001
     64  CH2       28.9370    0.4200  -19.9760 C.ar  163  TRP163      0.0015
     65  N         27.5650    3.6130  -15.4080 N.3   165  SER165     -0.1202
     66  CA        28.7010    4.4440  -15.8050 C.3   165  SER165      0.2020
     67  C         28.3930    5.9020  -15.5010 C.2   165  SER165      0.2619
     68  O         27.2940    6.2310  -15.0520 O.2   165  SER165     -0.2717
     69  CB        29.0110    4.2570  -17.2930 C.3   165  SER165      0.2103
     70  OG        27.9060    4.6500  -18.0860 O.3   165  SER165     -0.2182
     71  N         29.3690    6.7720  -15.7370 N.am  166  GLN166     -0.1965
     72  CA        29.2090    8.1980  -15.4740 C.3   166  GLN166      0.1718
     73  C         27.9800    8.7440  -16.1960 C.2   166  GLN166      0.2458
     74  O         27.6490    8.2920  -17.2950 O.2   166  GLN166     -0.2730
     75  CB        30.4670    8.9720  -15.8940 C.3   166  GLN166      0.0407
     76  CG        31.7390    8.5560  -15.1510 C.3   166  GLN166      0.0908
     77  CD        32.5440    7.4890  -15.8860 C.2   166  GLN166      0.2608
     78  OE1       31.9890    6.5530  -16.4690 O.2   166  GLN166     -0.2717
     79  NE2       33.8670    7.6260  -15.8520 N.am  166  GLN166     -0.0878
     80  N         27.2830    9.7110  -15.5770 N.am  167  PRO167     -0.2716
     81  CA        26.1400   10.2900  -16.2810 C.3   167  PRO167      0.1536
     82  C         26.5870   10.9630  -17.5780 C.2   167  PRO167      0.2599
     83  O         27.6720   11.5500  -17.6260 O.2   167  PRO167     -0.2715
     84  CB        25.5750   11.3180  -15.2870 C.3   167  PRO167      0.0310
     85  CG        26.5790   11.4830  -14.2320 C.3   167  PRO167      0.0237
     86  CD        27.5130   10.3190  -14.2550 C.3   167  PRO167      0.0939
     87  N         25.7740   10.8450  -18.6230 N.am  168  SER168     -0.1950
     88  CA        26.1090   11.4230  -19.9300 C.3   168  SER168      0.1924
     89  C         26.1690   12.9470  -19.8550 C.2   168  SER168      0.2314
     90  O         27.0220   13.5790  -20.4880 O.2   168  SER168     -0.2863
     91  CB        25.1060   10.9800  -20.9930 C.3   168  SER168      0.2116
     92  OG        25.3200    9.6260  -21.3640 O.3   168  SER168     -0.2180
     93  N         28.4260   16.6760  -19.1690 N.3   171  PRO171     -0.2102
     94  CA        29.5580   15.8760  -19.6300 C.3   171  PRO171      0.1504
     95  C         30.7650   15.9910  -18.7030 C.2   171  PRO171      0.2576
     96  O         31.1490   17.0970  -18.3140 O.2   171  PRO171     -0.2718
     97  CB        29.8670   16.4650  -21.0120 C.3   171  PRO171      0.0282
     98  CG        28.5870   17.1000  -21.4420 C.3   171  PRO171      0.0208
     99  CD        28.0090   17.6620  -20.1830 C.3   171  PRO171      0.0893
    100  N         31.3340   14.8470  -18.3300 N.am  172  GLY172     -0.1957
    101  CA        32.5340   14.8190  -17.5000 C.3   172  GLY172      0.1869
    102  C         32.2830   14.5980  -16.0220 C.2   172  GLY172      0.2309
    103  O         33.2120   14.2970  -15.2700 O.2   172  GLY172     -0.2863
@<TRIPOS>BOND
     1    49    48   ar
     2    48    50   ar
     3    48    47    1
     4    46    47    1
     5    46    43    1
     6    44    43    1
     7    44    45    2
     8    43    42    1
     9    37    36    2
    10    42    36   am
    11    36    35    1
    12    35    38    1
    13    35    34    1
    14    38    39    1
    15    39    41   ar
    16    39    40   ar
    17    32    31    2
    18    19    20    1
    19    24    23    1
    20    23    20    1
    21    22    21    2
    22    20    21    1
    23    31    33   am
    24    31    30    1
    25    98    97    1
    26    98    99    1
    27    92    91    1
    28    97    94    1
    29    91    88    1
    30    90    89    2
    31    17    15   ar
    32    17    18   ar
    33    30    29    1
    34    15    14   ar
    35    62    64   ar
    36    62    60   ar
    37    99    93    1
    38    64    63   ar
    39    88    89    1
    40    88    87    1
    41     8     6   ar
    42    94    93    1
    43    94    95    1
    44    29    26    1
    45    18    16   ar
    46    59    60   ar
    47    59    57   ar
    48    60    58   ar
    49    14    13    1
    50    14    16   ar
    51    25    26    1
    52    13    10    1
    53    95   100   am
    54    95    96    2
    55    63    61   ar
    56     6     7   ar
    57     6     5    1
    58    87    82   am
    59    10    11    1
    60    10     9    1
    61    26    27    1
    62   100   101    1
    63    11    12    2
    64    70    69    1
    65    57    56   ar
    66     5     2    1
    67    58    61   ar
    68    58    56   ar
    69    28    27    2
    70    83    82    2
    71    82    81    1
    72   101   102    1
    73    74    73    2
    74    69    66    1
    75    56    55    1
    76     2     3    1
    77     2     1    1
    78    78    77    2
    79    81    80    1
    80    81    84    1
    81     3     4    2
    82    73    80   am
    83    73    72    1
    84   102   103    2
    85    75    72    1
    86    75    76    1
    87    77    79   am
    88    77    76    1
    89    66    67    1
    90    66    65    1
    91    71    67   am
    92    71    72    1
    93    54    53    2
    94    55    52    1
    95    80    86    1
    96    67    68    2
    97    84    85    1
    98    51    52    1
    99    53    52    1
   100    86    85    1
