@<TRIPOS>MOLECULE
tmp/3asqB00.pdb
 85 83 0 0 0
SMALL
GASTEIGER

@<TRIPOS>ATOM
      1  N         22.2460  -25.8960  -27.6570 N.3   101  ASP101     -0.1239
      2  CA        23.4240  -25.0820  -27.9490 C.3   101  ASP101      0.1674
      3  C         23.2660  -23.7570  -27.2220 C.2   101  ASP101      0.2266
      4  O         22.1730  -23.1830  -27.1980 O.2   101  ASP101     -0.2867
      5  CB        23.5530  -24.8110  -29.4520 C.3   101  ASP101      0.1410
      6  CG        24.2180  -25.9550  -30.2150 C.2   101  ASP101      0.3668
      7  OD1       24.4110  -27.0560  -29.6560 O.co2 101  ASP101     -0.2456
      8  OD2       24.5480  -25.7330  -31.3960 O.co2 101  ASP101     -0.2456
      9  N         24.1940  -19.8060  -26.9170 N.3   103  HIS103     -0.1241
     10  CA        24.7130  -18.6530  -27.6320 C.3   103  HIS103      0.1621
     11  C         24.9180  -17.5270  -26.6430 C.2   103  HIS103      0.2264
     12  O         23.9670  -16.9070  -26.1630 O.2   103  HIS103     -0.2867
     13  CB        23.8050  -18.3190  -28.8110 C.3   103  HIS103      0.0745
     14  CG        23.6360  -19.4810  -29.7340 C.ar  103  HIS103      0.0817
     15  ND1       22.4720  -20.2130  -29.8210 N.ar  103  HIS103     -0.2268
     16  CD2       24.5270  -20.0950  -30.5470 C.ar  103  HIS103      0.1154
     17  CE1       22.6410  -21.2010  -30.6830 C.ar  103  HIS103      0.1986
     18  NE2       23.8810  -21.1520  -31.1350 N.ar  103  HIS103     -0.2212
     19  N         29.6680  -19.3710  -29.0430 N.3   123  SER123     -0.1217
     20  CA        28.7100  -20.4680  -28.9230 C.3   123  SER123      0.1889
     21  C         29.3480  -21.6800  -28.2640 C.2   123  SER123      0.2288
     22  O         30.5280  -21.9590  -28.4650 O.2   123  SER123     -0.2866
     23  CB        28.1250  -20.8350  -30.2840 C.3   123  SER123      0.2089
     24  OG        27.3500  -19.7670  -30.7980 O.3   123  SER123     -0.2183
     25  N         32.7480  -22.8670  -29.9850 N.3   141  ASP141     -0.1239
     26  CA        32.6600  -23.4570  -31.3270 C.3   141  ASP141      0.1674
     27  C         33.7750  -22.9800  -32.2500 C.2   141  ASP141      0.2266
     28  O         34.2830  -23.7510  -33.0660 O.2   141  ASP141     -0.2867
     29  CB        31.3220  -23.1230  -31.9900 C.3   141  ASP141      0.1410
     30  CG        30.1770  -23.9920  -31.5000 C.2   141  ASP141      0.3668
     31  OD1       30.3940  -24.9090  -30.6820 O.co2 141  ASP141     -0.2456
     32  OD2       29.0420  -23.7520  -31.9560 O.co2 141  ASP141     -0.2456
     33  N         20.7200  -16.5870  -25.8020 N.3   157  TRP157     -0.1241
     34  CA        19.6520  -17.4030  -26.3820 C.3   157  TRP157      0.1605
     35  C         20.1640  -18.8170  -26.6050 C.2   157  TRP157      0.2264
     36  O         21.3740  -19.0450  -26.6470 O.2   157  TRP157     -0.2867
     37  CB        19.0940  -16.7830  -27.6780 C.3   157  TRP157      0.0550
     38  CG        20.0900  -16.6320  -28.8120 C.ar  157  TRP157      0.0003
     39  CD1       21.1020  -15.7190  -28.8980 C.ar  157  TRP157      0.0946
     40  CD2       20.1360  -17.3990  -30.0240 C.ar  157  TRP157      0.0152
     41  NE1       21.7880  -15.8790  -30.0810 N.ar  157  TRP157     -0.2442
     42  CE2       21.2170  -16.9030  -30.7900 C.ar  157  TRP157      0.0810
     43  CE3       19.3810  -18.4670  -30.5310 C.ar  157  TRP157      0.0012
     44  CZ2       21.5590  -17.4310  -32.0370 C.ar  157  TRP157      0.0191
     45  CZ3       19.7210  -18.9920  -31.7800 C.ar  157  TRP157      0.0001
     46  CH2       20.8030  -18.4720  -32.5140 C.ar  157  TRP157      0.0015
     47  N         19.5170  -22.6990  -28.8080 N.3   159  SER159     -0.1202
     48  CA        18.9140  -23.3940  -29.9420 C.3   159  SER159      0.2020
     49  C         19.0890  -24.8990  -29.7860 C.2   159  SER159      0.2619
     50  O         19.7170  -25.3640  -28.8320 O.2   159  SER159     -0.2717
     51  CB        19.5160  -22.9000  -31.2630 C.3   159  SER159      0.2103
     52  OG        20.8920  -23.2240  -31.3440 O.3   159  SER159     -0.2182
     53  N         18.5280  -25.6590  -30.7220 N.am  160  GLN160     -0.1965
     54  CA        18.6580  -27.1140  -30.7140 C.3   160  GLN160      0.1718
     55  C         20.1260  -27.5510  -30.6390 C.2   160  GLN160      0.2458
     56  O         21.0010  -26.8710  -31.1770 O.2   160  GLN160     -0.2730
     57  CB        17.9940  -27.7110  -31.9620 C.3   160  GLN160      0.0407
     58  CG        16.5060  -27.3760  -32.1020 C.3   160  GLN160      0.0908
     59  CD        16.2350  -26.1570  -32.9650 C.2   160  GLN160      0.2608
     60  OE1       17.0050  -25.1910  -32.9810 O.2   160  GLN160     -0.2717
     61  NE2       15.1220  -26.1940  -33.6910 N.am  160  GLN160     -0.0878
     62  N         20.4050  -28.6850  -29.9670 N.am  161  PRO161     -0.2716
     63  CA        21.7980  -29.1500  -29.9600 C.3   161  PRO161      0.1536
     64  C         22.2660  -29.4250  -31.3830 C.2   161  PRO161      0.2599
     65  O         21.4780  -29.9010  -32.2110 O.2   161  PRO161     -0.2715
     66  CB        21.7490  -30.4600  -29.1650 C.3   161  PRO161      0.0310
     67  CG        20.4110  -30.5390  -28.5560 C.3   161  PRO161      0.0237
     68  CD        19.4930  -29.6070  -29.2660 C.3   161  PRO161      0.0939
     69  N         23.5240  -29.1100  -31.6750 N.am  162  SER162     -0.1950
     70  CA        24.0580  -29.3510  -33.0180 C.3   162  SER162      0.1924
     71  C         24.1510  -30.8440  -33.3310 C.2   162  SER162      0.2314
     72  O         23.9660  -31.2510  -34.4850 O.2   162  SER162     -0.2863
     73  CB        25.4070  -28.6630  -33.2100 C.3   162  SER162      0.2116
     74  OG        25.2300  -27.2660  -33.3760 O.3   162  SER162     -0.2180
     75  N         22.1310  -34.5780  -34.9180 N.3   165  PRO165     -0.2102
     76  CA        21.3210  -33.6900  -35.7560 C.3   165  PRO165      0.1504
     77  C         19.8310  -34.0150  -35.6840 C.2   165  PRO165      0.2576
     78  O         19.4470  -35.1890  -35.6750 O.2   165  PRO165     -0.2718
     79  CB        21.8650  -33.9470  -37.1660 C.3   165  PRO165      0.0282
     80  CG        23.2640  -34.4090  -36.9400 C.3   165  PRO165      0.0208
     81  CD        23.1850  -35.2490  -35.7020 C.3   165  PRO165      0.0893
     82  N         19.0080  -32.9730  -35.6020 N.am  166  GLY166     -0.1957
     83  CA        17.5590  -33.1320  -35.5520 C.3   166  GLY166      0.1869
     84  C         16.9520  -33.1850  -34.1610 C.2   166  GLY166      0.2309
     85  O         15.7370  -33.0210  -34.0090 O.2   166  GLY166     -0.2863
@<TRIPOS>BOND
     1    79    80    1
     2    79    76    1
     3    80    81    1
     4    76    77    1
     5    76    75    1
     6    81    75    1
     7    77    78    2
     8    77    82   am
     9    82    83    1
    10    83    84    1
    11    72    71    2
    12    84    85    2
    13    61    59   am
    14    74    73    1
    15    71    70    1
    16    73    70    1
    17    28    27    2
    18    70    69    1
    19    60    59    2
    20    59    58    1
    21    46    44   ar
    22    46    45   ar
    23    27    26    1
    24    65    64    2
    25    58    57    1
    26    44    42   ar
    27    29    30    1
    28    29    26    1
    29    57    54    1
    30    32    30   ar
    31    45    43   ar
    32    69    64   am
    33    30    31   ar
    34     8     6   ar
    35    64    63    1
    36    52    51    1
    37    26    25    1
    38    51    48    1
    39    56    55    2
    40    18    17   ar
    41    18    16   ar
    42    24    23    1
    43    42    41   ar
    44    42    40   ar
    45    53    54    1
    46    53    49   am
    47    54    55    1
    48    17    15   ar
    49    55    62   am
    50    16    14   ar
    51    43    40   ar
    52    23    20    1
    53     6     7   ar
    54     6     5    1
    55    41    39   ar
    56    40    38   ar
    57    62    63    1
    58    62    68    1
    59    63    66    1
    60    48    49    1
    61    48    47    1
    62    15    14   ar
    63    49    50    2
    64    14    13    1
    65     5     2    1
    66    68    67    1
    67    66    67    1
    68    19    20    1
    69    20    21    1
    70    39    38   ar
    71    38    37    1
    72    13    10    1
    73    22    21    2
    74     2     1    1
    75     2     3    1
    76    37    34    1
    77    10     9    1
    78    10    11    1
    79     3     4    2
    80    36    35    2
    81    11    12    2
    82    35    34    1
    83    34    33    1
