@<TRIPOS>MOLECULE
tmp/3asrA00.pdb
 101 99 0 0 0
SMALL
GASTEIGER

@<TRIPOS>ATOM
      1  N         17.9630  -17.6780  -15.8700 N.3   107  ASP107     -0.1239
      2  CA        17.0490  -17.3260  -16.9450 C.3   107  ASP107      0.1674
      3  C         15.6760  -17.9030  -16.6060 C.2   107  ASP107      0.2266
      4  O         15.5870  -19.0280  -16.1100 O.2   107  ASP107     -0.2867
      5  CB        17.5320  -17.9180  -18.2720 C.3   107  ASP107      0.1410
      6  CG        18.5750  -17.0510  -18.9720 C.2   107  ASP107      0.3668
      7  OD1       19.1900  -16.1640  -18.3380 O.co2 107  ASP107     -0.2456
      8  OD2       18.7770  -17.2700  -20.1860 O.co2 107  ASP107     -0.2456
      9  N         12.0470  -19.2960  -17.7970 N.3   109  HIS109     -0.1241
     10  CA        11.2820  -19.8550  -18.9040 C.3   109  HIS109      0.1621
     11  C          9.8180  -19.8820  -18.4980 C.2   109  HIS109      0.2264
     12  O          9.3940  -20.7160  -17.6870 O.2   109  HIS109     -0.2867
     13  CB        11.8210  -21.2240  -19.2800 C.3   109  HIS109      0.0745
     14  CG        13.2580  -21.1860  -19.6980 C.ar  109  HIS109      0.0817
     15  ND1       13.6490  -20.8060  -20.9650 N.ar  109  HIS109     -0.2268
     16  CD2       14.3970  -21.4180  -19.0050 C.ar  109  HIS109      0.1154
     17  CE1       14.9680  -20.8330  -21.0410 C.ar  109  HIS109      0.1986
     18  NE2       15.4460  -21.2050  -19.8680 N.ar  109  HIS109     -0.2212
     19  N         10.8970  -16.4030  -22.7980 N.3   129  SER129     -0.1217
     20  CA        12.0300  -16.4570  -21.8780 C.3   129  SER129      0.1889
     21  C         12.4780  -15.0540  -21.4870 C.2   129  SER129      0.2288
     22  O         12.3140  -14.1010  -22.2550 O.2   129  SER129     -0.2866
     23  CB        13.1840  -17.2920  -22.4440 C.3   129  SER129      0.2089
     24  OG        13.5890  -16.8230  -23.7170 O.3   129  SER129     -0.2183
     25  N         12.9640  -12.4510  -24.6360 N.3   147  ASP147     -0.1225
     26  CA        14.1250  -12.6900  -25.5040 C.3   147  ASP147      0.1805
     27  C         13.7850  -12.6140  -26.9880 C.2   147  ASP147      0.2597
     28  O         14.5960  -12.1480  -27.7930 O.2   147  ASP147     -0.2718
     29  CB        14.7840  -14.0360  -25.1900 C.3   147  ASP147      0.1424
     30  CG        15.5660  -14.0180  -23.8890 C.2   147  ASP147      0.3668
     31  OD1       16.0750  -12.9430  -23.5060 O.co2 147  ASP147     -0.2456
     32  OD2       15.6790  -15.0860  -23.2520 O.co2 147  ASP147     -0.2456
     33  N         12.5940  -13.0820  -27.3490 N.am  148  GLU148     -0.1979
     34  CA        12.1740  -13.0920  -28.7480 C.3   148  GLU148      0.1602
     35  C         10.9620  -12.2000  -28.9680 C.2   148  GLU148      0.2287
     36  O         10.1800  -11.9510  -28.0460 O.2   148  GLU148     -0.2864
     37  CB        11.8720  -14.5200  -29.2340 C.3   148  GLU148      0.0415
     38  CG        12.8430  -15.6110  -28.7540 C.3   148  GLU148      0.1163
     39  CD        14.1620  -15.6700  -29.5170 C.2   148  GLU148      0.3649
     40  OE1       14.5690  -14.6630  -30.1420 O.co2 148  GLU148     -0.2457
     41  OE2       14.8060  -16.7430  -29.4810 O.co2 148  GLU148     -0.2457
     42  N         10.0380  -23.1120  -15.5470 N.3   163  TRP163     -0.1241
     43  CA        11.3260  -23.6990  -15.2140 C.3   163  TRP163      0.1605
     44  C         12.4270  -22.6590  -15.3660 C.2   163  TRP163      0.2264
     45  O         12.2360  -21.6360  -16.0260 O.2   163  TRP163     -0.2867
     46  CB        11.5980  -24.9700  -16.0490 C.3   163  TRP163      0.0550
     47  CG        11.6860  -24.7490  -17.5350 C.ar  163  TRP163      0.0003
     48  CD1       10.6490  -24.5430  -18.4010 C.ar  163  TRP163      0.0946
     49  CD2       12.8810  -24.7400  -18.3310 C.ar  163  TRP163      0.0152
     50  NE1       11.1220  -24.3940  -19.6870 N.ar  163  TRP163     -0.2442
     51  CE2       12.4880  -24.5100  -19.6730 C.ar  163  TRP163      0.0810
     52  CE3       14.2450  -24.9000  -18.0420 C.ar  163  TRP163      0.0012
     53  CZ2       13.4130  -24.4330  -20.7280 C.ar  163  TRP163      0.0191
     54  CZ3       15.1660  -24.8310  -19.0970 C.ar  163  TRP163      0.0001
     55  CH2       14.7410  -24.5930  -20.4190 C.ar  163  TRP163      0.0015
     56  N         16.8550  -21.8990  -15.8470 N.3   165  SER165     -0.1202
     57  CA        18.1270  -22.4390  -16.3210 C.3   165  SER165      0.2020
     58  C         19.2620  -21.4900  -15.9580 C.2   165  SER165      0.2619
     59  O         19.0180  -20.3820  -15.4880 O.2   165  SER165     -0.2717
     60  CB        18.0810  -22.6860  -17.8400 C.3   165  SER165      0.2103
     61  OG        17.8660  -21.4920  -18.5630 O.3   165  SER165     -0.2182
     62  N         20.4990  -21.9330  -16.1780 N.am  166  GLN166     -0.1965
     63  CA        21.6720  -21.0980  -15.9350 C.3   166  GLN166      0.1718
     64  C         21.5400  -19.7740  -16.6830 C.2   166  GLN166      0.2458
     65  O         21.0330  -19.7380  -17.8080 O.2   166  GLN166     -0.2730
     66  CB        22.9560  -21.8250  -16.3600 C.3   166  GLN166      0.0407
     67  CG        23.2230  -23.1330  -15.6190 C.3   166  GLN166      0.0908
     68  CD        22.6590  -24.3590  -16.3280 C.2   166  GLN166      0.2608
     69  OE1       21.5900  -24.3060  -16.9470 O.2   166  GLN166     -0.2717
     70  NE2       23.3770  -25.4760  -16.2320 N.am  166  GLN166     -0.0878
     71  N         21.9930  -18.6710  -16.0620 N.am  167  PRO167     -0.2716
     72  CA        21.8720  -17.3890  -16.7500 C.3   167  PRO167      0.1536
     73  C         22.6790  -17.3710  -18.0500 C.2   167  PRO167      0.2599
     74  O         23.7560  -17.9700  -18.1120 O.2   167  PRO167     -0.2715
     75  CB        22.4230  -16.3740  -15.7360 C.3   167  PRO167      0.0310
     76  CG        23.1310  -17.1520  -14.7120 C.3   167  PRO167      0.0237
     77  CD        22.6220  -18.5530  -14.7340 C.3   167  PRO167      0.0939
     78  N         22.1380  -16.7130  -19.0720 N.am  168  SER168     -0.1950
     79  CA        22.7850  -16.6210  -20.3860 C.3   168  SER168      0.1924
     80  C         24.1460  -15.9280  -20.2780 C.2   168  SER168      0.2314
     81  O         25.1350  -16.3900  -20.8580 O.2   168  SER168     -0.2863
     82  CB        21.8890  -15.8850  -21.3870 C.3   168  SER168      0.2116
     83  OG        20.8170  -16.6990  -21.8490 O.3   168  SER168     -0.2180
     84  N         28.4960  -16.2980  -19.5270 N.3   171  PRO171     -0.2102
     85  CA        28.3640  -17.6800  -19.9920 C.3   171  PRO171      0.1504
     86  C         29.1050  -18.6600  -19.0930 C.2   171  PRO171      0.2576
     87  O         30.2760  -18.4450  -18.7730 O.2   171  PRO171     -0.2718
     88  CB        28.9980  -17.6480  -21.3910 C.3   171  PRO171      0.0282
     89  CG        28.9780  -16.2150  -21.7920 C.3   171  PRO171      0.0208
     90  CD        29.1760  -15.4530  -20.5250 C.3   171  PRO171      0.0893
     91  N         28.4150  -19.7200  -18.6830 N.am  172  GLY172     -0.1957
     92  CA        29.0190  -20.7610  -17.8610 C.3   172  GLY172      0.1869
     93  C         28.7220  -20.6460  -16.3780 C.2   172  GLY172      0.2309
     94  O         28.8950  -21.6140  -15.6370 O.2   172  GLY172     -0.2863
     95  N         17.5390  -27.3570  -14.9950 N.3   216  PRO216     -0.2116
     96  CA        18.8860  -27.8660  -14.7980 C.3   216  PRO216      0.1372
     97  C         19.7480  -26.8740  -14.0090 C.2   216  PRO216      0.2244
     98  O         19.3100  -25.7550  -13.7330 O.2   216  PRO216     -0.2868
     99  CB        19.4000  -27.9850  -16.2300 C.3   216  PRO216      0.0268
    100  CG        18.7780  -26.8160  -16.9260 C.3   216  PRO216      0.0207
    101  CD        17.3950  -26.6660  -16.2920 C.3   216  PRO216      0.0892
@<TRIPOS>BOND
     1    40    39   ar
     2    39    41   ar
     3    39    38    1
     4    37    38    1
     5    37    34    1
     6    35    34    1
     7    35    36    2
     8    34    33    1
     9    28    27    2
    10    33    27   am
    11    27    26    1
    12    26    29    1
    13    26    25    1
    14    29    30    1
    15    30    31   ar
    16    30    32   ar
    17    24    23    1
    18    19    20    1
    19    23    20    1
    20    22    21    2
    21    20    21    1
    22    83    82    1
    23    89    88    1
    24    89    90    1
    25    88    85    1
    26    82    79    1
    27    17    15   ar
    28    17    18   ar
    29    15    14   ar
    30    81    80    2
    31    53    55   ar
    32    53    51   ar
    33    90    84    1
    34    55    54   ar
    35    79    80    1
    36    79    78    1
    37     8     6   ar
    38    85    84    1
    39    85    86    1
    40    18    16   ar
    41    14    13    1
    42    14    16   ar
    43    50    51   ar
    44    50    48   ar
    45    51    49   ar
    46    13    10    1
    47    54    52   ar
    48    86    87    2
    49    86    91   am
    50    78    73   am
    51     6     7   ar
    52     6     5    1
    53    10    11    1
    54    10     9    1
    55    91    92    1
    56    61    60    1
    57    11    12    2
    58    48    47   ar
    59    49    52   ar
    60    49    47   ar
    61     5     2    1
    62    74    73    2
    63    73    72    1
    64    92    93    1
    65    60    57    1
    66    65    64    2
    67    47    46    1
    68    69    68    2
    69     2     3    1
    70     2     1    1
    71   100   101    1
    72   100    99    1
    73    72    71    1
    74    72    75    1
    75    64    71   am
    76    64    63    1
    77     3     4    2
    78    93    94    2
    79    66    63    1
    80    66    67    1
    81    68    70   am
    82    68    67    1
    83    57    58    1
    84    57    56    1
    85   101    95    1
    86    99    96    1
    87    62    58   am
    88    62    63    1
    89    71    77    1
    90    46    43    1
    91    45    44    2
    92    58    59    2
    93    75    76    1
    94    42    43    1
    95    44    43    1
    96    95    96    1
    97    96    97    1
    98    77    76    1
    99    97    98    2
