@<TRIPOS>MOLECULE
tmp/3assB00.pdb
 109 106 0 0 0
SMALL
GASTEIGER

@<TRIPOS>ATOM
      1  N        -33.3740    6.3620   20.0780 N.3   101  ASP101     -0.1239
      2  CA       -33.2600    7.7960   20.3200 C.3   101  ASP101      0.1674
      3  C        -32.0260    8.3020   19.5900 C.2   101  ASP101      0.2266
      4  O        -30.9930    7.6230   19.5600 O.2   101  ASP101     -0.2867
      5  CB       -33.1220    8.1000   21.8180 C.3   101  ASP101      0.1410
      6  CG       -34.4620    8.1140   22.5620 C.2   101  ASP101      0.3668
      7  OD1      -35.4830    7.6370   22.0330 O.co2 101  ASP101     -0.2456
      8  OD2      -34.4720    8.6140   23.7000 O.co2 101  ASP101     -0.2456
      9  N        -29.0600   11.1020   19.2490 N.3   103  HIS103     -0.1241
     10  CA       -28.3010   12.1260   19.9470 C.3   103  HIS103      0.1621
     11  C        -27.4620   12.8730   18.9350 C.2   103  HIS103      0.2264
     12  O        -26.4500   12.3750   18.4340 O.2   103  HIS103     -0.2867
     13  CB       -27.5270   11.5030   21.1070 C.3   103  HIS103      0.0745
     14  CG       -28.4270   10.7710   22.0440 C.ar  103  HIS103      0.0817
     15  ND1      -28.4930    9.3950   22.1050 N.ar  103  HIS103     -0.2268
     16  CD2      -29.3870   11.2300   22.8790 C.ar  103  HIS103      0.1154
     17  CE1      -29.4230    9.0430   22.9750 C.ar  103  HIS103      0.1986
     18  NE2      -29.9830   10.1380   23.4560 N.ar  103  HIS103     -0.2212
     19  N        -31.4010   16.0870   21.4150 N.3   123  SER123     -0.1217
     20  CA       -31.8920   14.7160   21.3120 C.3   123  SER123      0.1889
     21  C        -33.2680   14.6460   20.6750 C.2   123  SER123      0.2288
     22  O        -34.1030   15.5330   20.8580 O.2   123  SER123     -0.2866
     23  CB       -31.8880   14.0270   22.6730 C.3   123  SER123      0.2089
     24  OG       -30.5610   13.8090   23.1040 O.3   123  SER123     -0.2183
     25  N        -35.9230   17.0040   22.4550 N.3   141  ASP141     -0.1225
     26  CA       -36.3640   16.6430   23.8080 C.3   141  ASP141      0.1805
     27  C        -36.4590   17.8450   24.7390 C.2   141  ASP141      0.2597
     28  O        -37.3620   17.9120   25.5770 O.2   141  ASP141     -0.2718
     29  CB       -35.4180   15.6180   24.4340 C.3   141  ASP141      0.1424
     30  CG       -35.6200   14.2130   23.8970 C.2   141  ASP141      0.3668
     31  OD1      -36.6360   13.9410   23.2250 O.co2 141  ASP141     -0.2456
     32  OD2      -34.7440   13.3680   24.1700 O.co2 141  ASP141     -0.2456
     33  N        -35.5130   18.7710   24.6060 N.am  142  GLU142     -0.1979
     34  CA       -35.4530   19.9480   25.4730 C.3   142  GLU142      0.1602
     35  C        -35.6410   21.2220   24.6680 C.2   142  GLU142      0.2287
     36  O        -35.3450   21.2650   23.4720 O.2   142  GLU142     -0.2864
     37  CB       -34.1110   20.0350   26.2160 C.3   142  GLU142      0.0415
     38  CG       -33.6070   18.7420   26.8660 C.3   142  GLU142      0.1163
     39  CD       -34.5220   18.1830   27.9470 C.2   142  GLU142      0.3649
     40  OE1      -35.2800   18.9540   28.5810 O.co2 142  GLU142     -0.2457
     41  OE2      -34.4630   16.9520   28.1750 O.co2 142  GLU142     -0.2457
     42  N        -24.5460    9.6650   18.1080 N.3   157  TRP157     -0.1241
     43  CA       -24.7040    8.3420   18.7160 C.3   157  TRP157      0.1605
     44  C        -26.1840    8.0870   18.9410 C.2   157  TRP157      0.2264
     45  O        -26.9850    9.0180   18.9350 O.2   157  TRP157     -0.2867
     46  CB       -23.8890    8.2030   20.0150 C.3   157  TRP157      0.0550
     47  CG       -24.2840    9.1430   21.1340 C.ar  157  TRP157      0.0003
     48  CD1      -24.0190   10.4810   21.2170 C.ar  157  TRP157      0.0946
     49  CD2      -24.9780    8.7950   22.3400 C.ar  157  TRP157      0.0152
     50  NE1      -24.5200   10.9930   22.3950 N.ar  157  TRP157     -0.2442
     51  CE2      -25.1180    9.9800   23.0970 C.ar  157  TRP157      0.0810
     52  CE3      -25.5150    7.6010   22.8440 C.ar  157  TRP157      0.0012
     53  CZ2      -25.7680   10.0040   24.3340 C.ar  157  TRP157      0.0191
     54  CZ3      -26.1530    7.6290   24.0870 C.ar  157  TRP157      0.0001
     55  CH2      -26.2750    8.8210   24.8060 C.ar  157  TRP157      0.0015
     56  N        -29.2590    5.6040   21.1670 N.3   159  SER159     -0.1202
     57  CA       -29.5310    4.7840   22.3490 C.3   159  SER159      0.2020
     58  C        -30.9070    4.1380   22.2680 C.2   159  SER159      0.2619
     59  O        -31.6970    4.4370   21.3740 O.2   159  SER159     -0.2717
     60  CB       -29.4010    5.6120   23.6330 C.3   159  SER159      0.2103
     61  OG       -30.3910    6.6280   23.6820 O.3   159  SER159     -0.2182
     62  N        -31.1810    3.2430   23.2130 N.am  160  GLN160     -0.1965
     63  CA       -32.4810    2.5850   23.3070 C.3   160  GLN160      0.1718
     64  C        -33.6070    3.6230   23.3160 C.2   160  GLN160      0.2458
     65  O        -33.4590    4.6870   23.9250 O.2   160  GLN160     -0.2730
     66  CB       -32.5480    1.7260   24.5760 C.3   160  GLN160      0.0407
     67  CG       -31.5390    0.5720   24.6230 C.3   160  GLN160      0.0908
     68  CD       -30.2480    0.9200   25.3530 C.2   160  GLN160      0.2608
     69  OE1      -29.6880    2.0060   25.1850 O.2   160  GLN160     -0.2717
     70  NE2      -29.7600   -0.0160   26.1670 N.am  160  GLN160     -0.0878
     71  N        -34.7310    3.3270   22.6400 N.am  161  PRO161     -0.2716
     72  CA       -35.8290    4.3010   22.6090 C.3   161  PRO161      0.1536
     73  C        -36.2900    4.6560   24.0190 C.2   161  PRO161      0.2599
     74  O        -36.2650    3.8070   24.9130 O.2   161  PRO161     -0.2715
     75  CB       -36.9440    3.5670   21.8600 C.3   161  PRO161      0.0310
     76  CG       -36.2760    2.4740   21.1200 C.3   161  PRO161      0.0237
     77  CD       -35.0390    2.1090   21.8710 C.3   161  PRO161      0.0939
     78  N        -36.6770    5.9120   24.2210 N.am  162  SER162     -0.1950
     79  CA       -37.1930    6.3280   25.5230 C.3   162  SER162      0.1924
     80  C        -38.5110    5.6270   25.8420 C.2   162  SER162      0.2314
     81  O        -38.7590    5.2640   26.9930 O.2   162  SER162     -0.2863
     82  CB       -37.3540    7.8460   25.5910 C.3   162  SER162      0.2116
     83  OG       -36.1000    8.4720   25.8000 O.3   162  SER162     -0.2180
     84  N        -40.5380    2.0340   27.5270 N.3   165  PRO165     -0.2102
     85  CA       -39.3220    1.8300   28.3170 C.3   165  PRO165      0.1504
     86  C        -38.8730    0.3750   28.2740 C.2   165  PRO165      0.2576
     87  O        -39.7120   -0.5310   28.2500 O.2   165  PRO165     -0.2718
     88  CB       -39.7500    2.2220   29.7370 C.3   165  PRO165      0.0282
     89  CG       -40.9460    3.0900   29.5510 C.3   165  PRO165      0.0208
     90  CD       -41.6480    2.5440   28.3540 C.3   165  PRO165      0.0893
     91  N        -37.5610    0.1650   28.2200 N.am  166  GLY166     -0.1957
     92  CA       -36.9930   -1.1790   28.1990 C.3   166  GLY166      0.1869
     93  C        -36.7480   -1.7740   26.8230 C.2   166  GLY166      0.2309
     94  O        -35.9740   -2.7260   26.6960 O.2   166  GLY166     -0.2863
     95  N        -24.9180    2.6410   23.0130 N.3   210  PRO210     -0.2116
     96  CA       -25.2530    1.4220   23.7430 C.3   210  PRO210      0.1372
     97  C        -26.4540    0.6970   23.1460 C.2   210  PRO210      0.2244
     98  O        -27.1250    1.2150   22.2510 O.2   210  PRO210     -0.2868
     99  CB       -25.6220    1.9520   25.1280 C.3   210  PRO210      0.0268
    100  CG       -26.1930    3.3080   24.8590 C.3   210  PRO210      0.0207
    101  CD       -25.3820    3.8530   23.7150 C.3   210  PRO210      0.0892
    102  N        -29.2680   -2.9650   24.5120 N.3   212  ASN212     -0.1240
    103  CA       -29.5310   -3.9700   25.5470 C.3   212  ASN212      0.1653
    104  C        -28.6420   -5.2110   25.4500 C.2   212  ASN212      0.2266
    105  O        -28.5350   -5.9780   26.4120 O.2   212  ASN212     -0.2867
    106  CB       -31.0090   -4.3720   25.5580 C.3   212  ASN212      0.1155
    107  CG       -31.9260   -3.2560   26.0460 C.2   212  ASN212      0.2627
    108  OD1      -31.4790   -2.2530   26.6130 O.2   212  ASN212     -0.2716
    109  ND2      -33.2240   -3.4370   25.8340 N.am  212  ASN212     -0.0877
@<TRIPOS>BOND
     1    42    43    1
     2    12    11    2
     3    43    44    1
     4    43    46    1
     5    45    44    2
     6    11    10    1
     7     9    10    1
     8     4     3    2
     9     3     2    1
    10    10    13    1
    11    46    47    1
    12     1     2    1
    13     2     5    1
    14    21    22    2
    15    21    20    1
    16    13    14    1
    17    76    75    1
    18    76    77    1
    19    47    48   ar
    20    47    49   ar
    21    56    57    1
    22    48    50   ar
    23    20    19    1
    24    20    23    1
    25    59    58    2
    26     5     6    1
    27    75    72    1
    28    77    71    1
    29     7     6   ar
    30    14    15   ar
    31    14    16   ar
    32    15    17   ar
    33    98    97    2
    34    58    57    1
    35    58    62   am
    36    49    52   ar
    37    49    51   ar
    38    57    60    1
    39    50    51   ar
    40    25    26    1
    41     6     8   ar
    42    72    71    1
    43    72    73    1
    44    71    64   am
    45    23    24    1
    46    52    54   ar
    47    16    18   ar
    48    17    18   ar
    49    95   101    1
    50    95    96    1
    51    51    53   ar
    52    97    96    1
    53    62    63    1
    54    31    30   ar
    55    63    64    1
    56    63    66    1
    57    64    65    2
    58    36    35    2
    59    60    61    1
    60   101   100    1
    61    96    99    1
    62    26    29    1
    63    26    27    1
    64    30    32   ar
    65    30    29    1
    66    73    78   am
    67    73    74    2
    68    54    55   ar
    69    78    79    1
    70    53    55   ar
    71   102   103    1
    72    66    67    1
    73    33    27   am
    74    33    34    1
    75    67    68    1
    76    35    34    1
    77    27    28    2
    78   100    99    1
    79    69    68    2
    80    68    70   am
    81   104   103    1
    82   104   105    2
    83    34    37    1
    84    79    82    1
    85    79    80    1
    86   103   106    1
    87   106   107    1
    88    82    83    1
    89   109   107   am
    90    80    81    2
    91   107   108    2
    92    37    38    1
    93    94    93    2
    94    93    92    1
    95    38    39    1
    96    84    85    1
    97    84    90    1
    98    39    41   ar
    99    39    40   ar
   100    92    91    1
   101    91    86   am
   102    87    86    2
   103    86    85    1
   104    85    88    1
   105    90    89    1
   106    89    88    1
