@<TRIPOS>MOLECULE
tmp/3asxA00.pdb
 227 216 0 0 0
SMALL
GASTEIGER

@<TRIPOS>ATOM
      1  N          7.3740   -3.2030   59.6070 N.3    16  SER16      -0.1202
      2  CA         8.7250   -2.6660   59.9490 C.3    16  SER16       0.2020
      3  C          9.3220   -2.8140   61.3740 C.2    16  SER16       0.2619
      4  O         10.0500   -3.7920   61.5820 O.2    16  SER16      -0.2717
      5  CB         9.0300   -1.2900   59.3130 C.3    16  SER16       0.2103
      6  OG         7.9610   -0.3760   59.4880 O.3    16  SER16      -0.2182
      7  N          9.0630   -1.9350   62.3540 N.am   17  ARG17      -0.1965
      8  CA         8.0130   -0.9240   62.3790 C.3    17  ARG17       0.1729
      9  C          8.5310    0.4670   62.7670 C.2    17  ARG17       0.2617
     10  O          7.8730    1.4730   62.4920 O.2    17  ARG17      -0.2715
     11  CB         6.9510   -1.3130   63.4060 C.3    17  ARG17       0.0348
     12  CG         6.3950   -2.7220   63.2930 C.3    17  ARG17       0.0492
     13  CD         5.0700   -2.7590   64.0020 C.3    17  ARG17       0.2205
     14  NE         4.5680   -4.1180   64.1430 N.pl3  17  ARG17      -0.0865
     15  CZ         3.4550   -4.4170   64.8080 C.cat  17  ARG17       0.5346
     16  NH1        2.7430   -3.4480   65.3830 N.pl3  17  ARG17       0.1354
     17  NH2        3.0540   -5.6780   64.9050 N.pl3  17  ARG17       0.1354
     18  N          9.6840    0.5290   63.4300 N.am   18  SER18      -0.1936
     19  CA        10.1790    1.8010   63.9870 C.3    18  SER18       0.2055
     20  C         11.0560    2.5780   62.9760 C.2    18  SER18       0.2643
     21  O         11.3060    3.8010   63.0770 O.2    18  SER18      -0.2714
     22  CB        10.9740    1.4990   65.2520 C.3    18  SER18       0.2130
     23  OG        11.3070    2.7070   65.8920 O.3    18  SER18      -0.2179
     24  N         11.5200    1.8050   62.0010 N.am   19  PHE19      -0.1973
     25  CA        12.3700    2.2320   60.9020 C.3    19  PHE19       0.1639
     26  C         11.5910    3.0470   59.8420 C.2    19  PHE19       0.2290
     27  O         12.1830    3.8250   59.0940 O.2    19  PHE19      -0.2864
     28  CB        12.9680    0.9650   60.2890 C.3    19  PHE19       0.0560
     29  CG        14.1840    1.2020   59.4950 C.ar   19  PHE19      -0.0200
     30  CD1       14.3560    0.5450   58.2830 C.ar   19  PHE19      -0.0042
     31  CD2       15.1560    2.0960   59.9460 C.ar   19  PHE19      -0.0042
     32  CE1       15.4910    0.7550   57.5310 C.ar   19  PHE19      -0.0003
     33  CE2       16.3130    2.3360   59.1910 C.ar   19  PHE19      -0.0003
     34  CZ        16.4850    1.6590   57.9930 C.ar   19  PHE19      -0.0000
     35  N         12.8290    6.0490   56.9420 N.3    23  ILE23      -0.1245
     36  CA        12.4680    6.0330   55.5030 C.3    23  ILE23       0.1561
     37  C         11.7000    7.3100   55.0820 C.2    23  ILE23       0.2260
     38  O         12.0610    7.9760   54.1040 O.2    23  ILE23      -0.2867
     39  CB        11.7520    4.7410   55.0310 C.3    23  ILE23       0.0252
     40  CG1       12.7620    3.5640   55.0280 C.3    23  ILE23       0.0019
     41  CG2       11.1670    4.9780   53.6350 C.3    23  ILE23       0.0019
     42  CD1       12.1830    2.1410   55.1810 C.3    23  ILE23       0.0001
     43  N         12.5350    4.4700   47.8640 N.3    34  VAL34      -0.1245
     44  CA        12.9980    3.5270   48.9050 C.3    34  VAL34       0.1561
     45  C         11.8320    2.7790   49.5460 C.2    34  VAL34       0.2260
     46  O         11.8770    1.5400   49.7640 O.2    34  VAL34      -0.2867
     47  CB        13.8960    4.2660   49.9490 C.3    34  VAL34       0.0252
     48  CG1       14.1560    3.3520   51.1620 C.3    34  VAL34       0.0019
     49  CG2       15.1500    4.6680   49.3310 C.3    34  VAL34       0.0019
     50  N         10.7230    0.1220   47.2540 N.3    37  PHE37      -0.1227
     51  CA        11.7520   -0.9450   47.1300 C.3    37  PHE37       0.1736
     52  C         11.6690   -1.8210   48.3650 C.2    37  PHE37       0.2595
     53  O         11.7460   -3.0290   48.3090 O.2    37  PHE37      -0.2718
     54  CB        13.1700   -0.3020   47.0600 C.3    37  PHE37       0.0547
     55  CG        14.3410   -1.2990   46.7550 C.ar   37  PHE37      -0.0202
     56  CD1       15.6370   -1.0020   47.1980 C.ar   37  PHE37      -0.0042
     57  CD2       14.1440   -2.4680   46.0190 C.ar   37  PHE37      -0.0042
     58  CE1       16.7670   -1.9130   46.9540 C.ar   37  PHE37      -0.0003
     59  CE2       15.2530   -3.3580   45.6890 C.ar   37  PHE37      -0.0003
     60  CZ        16.5760   -3.0550   46.1650 C.ar   37  PHE37      -0.0000
     61  N         11.5340   -1.1840   49.5070 N.am   38  TYR38      -0.1976
     62  CA        11.3610   -1.9480   50.7460 C.3    38  TYR38       0.1639
     63  C         10.2010   -2.9460   50.6750 C.2    38  TYR38       0.2290
     64  O         10.3560   -4.1010   51.0390 O.2    38  TYR38      -0.2864
     65  CB        11.1820   -0.9920   51.9370 C.3    38  TYR38       0.0560
     66  CG        11.0240   -1.7490   53.2530 C.ar   38  TYR38      -0.0198
     67  CD1        9.7420   -2.1560   53.6830 C.ar   38  TYR38      -0.0009
     68  CD2       12.1230   -2.0360   54.0840 C.ar   38  TYR38      -0.0009
     69  CE1        9.5610   -2.8530   54.8770 C.ar   38  TYR38       0.0417
     70  CE2       11.9370   -2.7450   55.3210 C.ar   38  TYR38       0.0417
     71  CZ        10.6490   -3.1420   55.6790 C.ar   38  TYR38       0.1957
     72  OH        10.3730   -3.8070   56.8380 O.3    38  TYR38      -0.2866
     73  N         10.8880   -5.8470   48.1730 N.3    41  LEU41      -0.1245
     74  CA        11.7810   -6.7990   48.8430 C.3    41  LEU41       0.1561
     75  C         11.0310   -7.5940   49.9080 C.2    41  LEU41       0.2260
     76  O         11.2670   -8.7900   50.0390 O.2    41  LEU41      -0.2867
     77  CB        13.0000   -6.1040   49.5060 C.3    41  LEU41       0.0270
     78  CG        13.9290   -5.4340   48.4550 C.3    41  LEU41       0.0019
     79  CD1       14.9460   -4.5090   49.2400 C.3    41  LEU41       0.0001
     80  CD2       14.6430   -6.4870   47.5830 C.3    41  LEU41       0.0001
     81  N         10.9460  -11.5810   49.6730 N.3    45  ASP45      -0.1239
     82  CA        11.4160  -12.3860   50.8410 C.3    45  ASP45       0.1674
     83  C         10.3180  -13.3740   51.3040 C.2    45  ASP45       0.2266
     84  O         10.6140  -14.4640   51.7470 O.2    45  ASP45      -0.2867
     85  CB        11.7830  -11.5020   52.0440 C.3    45  ASP45       0.1410
     86  CG        13.0990  -10.7030   51.8310 C.2    45  ASP45       0.3668
     87  OD1       13.8860  -10.9940   50.8740 O.co2  45  ASP45      -0.2456
     88  OD2       13.3260   -9.7640   52.6400 O.co2  45  ASP45      -0.2456
     89  N         20.7360  -11.9810   49.1410 N.3   140  VAL140     -0.1231
     90  CA        19.5920  -11.5940   49.9570 C.3   140  VAL140      0.1692
     91  C         19.7370  -10.2140   50.6230 C.2   140  VAL140      0.2591
     92  O         18.7620   -9.6620   51.1070 O.2   140  VAL140     -0.2718
     93  CB        19.2380  -12.6690   51.0620 C.3   140  VAL140      0.0266
     94  CG1       18.9350  -14.0410   50.3790 C.3   140  VAL140      0.0020
     95  CG2       20.3480  -12.8000   52.1030 C.3   140  VAL140      0.0020
     96  N         20.9310   -9.6360   50.5980 N.am  141  ALA141     -0.1980
     97  CA        21.2480   -8.4540   51.3960 C.3   141  ALA141      0.1597
     98  C         22.1930   -7.5360   50.6520 C.2   141  ALA141      0.2287
     99  O         21.9790   -6.3310   50.5910 O.2   141  ALA141     -0.2864
    100  CB        21.8870   -8.9200   52.7440 C.3   141  ALA141      0.0319
    101  N         20.4760   -5.6640   48.0210 N.3   144  VAL144     -0.1231
    102  CA        19.7150   -4.5450   48.6600 C.3   144  VAL144      0.1692
    103  C         20.6020   -3.2870   48.8370 C.2   144  VAL144      0.2592
    104  O         20.1680   -2.2250   48.4520 O.2   144  VAL144     -0.2718
    105  CB        19.1000   -4.9460   50.0280 C.3   144  VAL144      0.0266
    106  CG1       18.2500   -3.7740   50.6110 C.3   144  VAL144      0.0020
    107  CG2       18.1430   -6.1690   49.7920 C.3   144  VAL144      0.0020
    108  N         21.7930   -3.4180   49.4230 N.am  145  GLY145     -0.1957
    109  CA        22.7130   -2.2790   49.5770 C.3   145  GLY145      0.1869
    110  C         23.0150   -1.6430   48.2080 C.2   145  GLY145      0.2309
    111  O         22.9830   -0.4190   48.0590 O.2   145  GLY145     -0.2863
    112  N         19.8580    0.2260   46.7760 N.3   148  LEU148     -0.1245
    113  CA        19.6410    1.4750   47.4540 C.3   148  LEU148      0.1561
    114  C         20.6470    2.5250   47.0080 C.2   148  LEU148      0.2260
    115  O         20.2530    3.7220   46.7660 O.2   148  LEU148     -0.2867
    116  CB        19.7270    1.2680   48.9920 C.3   148  LEU148      0.0270
    117  CG        18.5660    0.4940   49.5370 C.3   148  LEU148      0.0019
    118  CD1       18.8910    0.0060   50.9450 C.3   148  LEU148      0.0001
    119  CD2       17.3020    1.4260   49.6500 C.3   148  LEU148      0.0001
    120  N         20.0030    6.2950   45.4130 N.3   152  PHE152     -0.1241
    121  CA        20.6550    7.5050   45.9300 C.3   152  PHE152      0.1605
    122  C         21.3720    8.2740   44.8130 C.2   152  PHE152      0.2264
    123  O         21.1270    9.4690   44.6640 O.2   152  PHE152     -0.2867
    124  CB        21.7240    7.1650   46.9900 C.3   152  PHE152      0.0534
    125  CG        21.1890    6.3700   48.2000 C.ar  152  PHE152     -0.0203
    126  CD1       22.0800    5.5650   48.9490 C.ar  152  PHE152     -0.0042
    127  CD2       19.8740    6.4780   48.6290 C.ar  152  PHE152     -0.0042
    128  CE1       21.6290    4.8770   50.0640 C.ar  152  PHE152     -0.0003
    129  CE2       19.4060    5.7170   49.7570 C.ar  152  PHE152     -0.0003
    130  CZ        20.3310    4.9650   50.4590 C.ar  152  PHE152     -0.0000
    131  N         27.9560   -3.1680   53.0460 N.3   172  MET172     -0.1230
    132  CA        26.8580   -2.5620   53.8530 C.3   172  MET172      0.1702
    133  C         25.7320   -3.5880   54.1900 C.2   172  MET172      0.2592
    134  O         25.3110   -3.7290   55.3780 O.2   172  MET172     -0.2718
    135  CB        26.1740   -1.3540   53.1840 C.3   172  MET172      0.0401
    136  CG        26.9760   -0.0730   52.9770 C.3   172  MET172      0.0596
    137  SD        27.2840    0.7190   54.6740 S.3   172  MET172     -0.1393
    138  CE        25.7210    1.4890   54.9190 C.3   172  MET172      0.0692
    139  N         25.2350   -4.2730   53.1610 N.am  173  GLY173     -0.1957
    140  CA        24.2680   -5.3430   53.3240 C.3   173  GLY173      0.1869
    141  C         24.7730   -6.5980   54.0160 C.2   173  GLY173      0.2309
    142  O         24.0190   -7.2030   54.8200 O.2   173  GLY173     -0.2863
    143  N         25.0330   -6.2940   57.8750 N.3   176  LEU176     -0.1231
    144  CA        23.7750   -6.3940   58.5680 C.3   176  LEU176      0.1693
    145  C         23.2660   -7.8250   58.5090 C.2   176  LEU176      0.2591
    146  O         22.7710   -8.3400   59.4890 O.2   176  LEU176     -0.2718
    147  CB        22.7260   -5.5170   57.8970 C.3   176  LEU176      0.0284
    148  CG        23.0810   -3.9950   57.8930 C.3   176  LEU176      0.0019
    149  CD1       21.9930   -3.1890   57.1670 C.3   176  LEU176      0.0001
    150  CD2       23.2510   -3.5230   59.3750 C.3   176  LEU176      0.0001
    151  N         23.3170   -8.4380   57.3270 N.am  177  GLN177     -0.1979
    152  CA        22.8480   -9.7970   57.2050 C.3   177  GLN177      0.1601
    153  C         23.6230  -10.7790   58.0460 C.2   177  GLN177      0.2287
    154  O         23.0280  -11.6310   58.6320 O.2   177  GLN177     -0.2864
    155  CB        22.9740  -10.2500   55.7140 C.3   177  GLN177      0.0394
    156  CG        22.3180  -11.5600   55.4040 C.3   177  GLN177      0.0908
    157  CD        20.8340  -11.5720   55.6910 C.2   177  GLN177      0.2608
    158  OE1       20.1370  -10.6780   55.3590 O.2   177  GLN177     -0.2717
    159  NE2       20.3510  -12.6450   56.2190 N.am  177  GLN177     -0.0878
    160  N         22.5500  -10.4070   61.7630 N.3   180  ASN180     -0.1240
    161  CA        21.3080  -11.1100   61.9940 C.3   180  ASN180      0.1653
    162  C         21.4790  -12.6150   62.0570 C.2   180  ASN180      0.2266
    163  O         20.8830  -13.2470   62.9290 O.2   180  ASN180     -0.2867
    164  CB        20.2500  -10.8040   60.9230 C.3   180  ASN180      0.1155
    165  CG        19.8480   -9.3610   60.9230 C.2   180  ASN180      0.2627
    166  OD1       19.2950   -8.8430   59.9220 O.2   180  ASN180     -0.2716
    167  ND2       20.1840   -8.6680   62.0110 N.am  180  ASN180     -0.0877
    168  N         32.0070    3.6590   52.9230 N.3   241  TYR241     -0.1241
    169  CA        30.6970    3.9240   52.3510 C.3   241  TYR241      0.1605
    170  C         30.0110    5.1570   53.0180 C.2   241  TYR241      0.2264
    171  O         29.4800    6.1000   52.3400 O.2   241  TYR241     -0.2867
    172  CB        29.7400    2.6610   52.4750 C.3   241  TYR241      0.0534
    173  CG        28.4180    2.8700   51.8030 C.ar  241  TYR241     -0.0201
    174  CD1       27.3780    3.5060   52.4800 C.ar  241  TYR241     -0.0009
    175  CD2       28.1860    2.4110   50.4510 C.ar  241  TYR241     -0.0009
    176  CE1       26.1530    3.7180   51.8970 C.ar  241  TYR241      0.0417
    177  CE2       26.9650    2.6080   49.8560 C.ar  241  TYR241      0.0417
    178  CZ        25.9650    3.2730   50.5440 C.ar  241  TYR241      0.1957
    179  OH        24.7580    3.5010   49.9850 O.3   241  TYR241     -0.2866
    180  N         19.6540    7.2990   57.2930 N.3   253  PHE253     -0.1227
    181  CA        19.0560    6.0420   56.8580 C.3   253  PHE253      0.1736
    182  C         20.1190    4.9090   56.7760 C.2   253  PHE253      0.2595
    183  O         19.8340    3.7640   57.1300 O.2   253  PHE253     -0.2718
    184  CB        18.3710    6.2590   55.4770 C.3   253  PHE253      0.0547
    185  CG        17.8420    4.9780   54.8330 C.ar  253  PHE253     -0.0202
    186  CD1       18.2860    4.5970   53.5720 C.ar  253  PHE253     -0.0042
    187  CD2       16.8480    4.2110   55.4430 C.ar  253  PHE253     -0.0042
    188  CE1       17.7740    3.4220   52.9550 C.ar  253  PHE253     -0.0003
    189  CE2       16.3310    3.0120   54.8200 C.ar  253  PHE253     -0.0003
    190  CZ        16.8180    2.6400   53.5750 C.ar  253  PHE253     -0.0000
    191  N         21.3060    5.2160   56.2750 N.am  254  CYS254     -0.1970
    192  CA        22.3660    4.2080   56.1020 C.3   254  CYS254      0.1712
    193  C         23.1210    3.9100   57.4230 C.2   254  CYS254      0.2296
    194  O         23.5870    2.7630   57.6450 O.2   254  CYS254     -0.2864
    195  CB        23.3860    4.6240   55.0390 C.3   254  CYS254      0.0983
    196  SG        22.6040    4.6510   53.3490 S.3   254  CYS254     -0.0798
    197  N         22.1020    4.3390   60.6920 N.3   256  ILE256     -0.1231
    198  CA        21.3590    3.7780   61.7890 C.3   256  ILE256      0.1678
    199  C         21.4530    2.2100   61.8580 C.2   256  ILE256      0.2434
    200  O         21.6980    1.6270   62.9700 O.2   256  ILE256     -0.2733
    201  CB        19.8900    4.2600   61.8180 C.3   256  ILE256      0.0265
    202  CG1       19.7900    5.7520   62.2320 C.3   256  ILE256      0.0019
    203  CG2       18.9290    3.3360   62.6920 C.3   256  ILE256      0.0020
    204  CD1       18.4640    6.3230   61.9360 C.3   256  ILE256      0.0001
    205  N         21.2000    1.5270   60.7110 N.am  257  PRO257     -0.2729
    206  CA        21.3100    0.0770   60.8270 C.3   257  PRO257      0.1401
    207  C         22.7210   -0.3690   61.1260 C.2   257  PRO257      0.2269
    208  O         22.8780   -1.3510   61.8870 O.2   257  PRO257     -0.2865
    209  CB        20.8170   -0.4270   59.4440 C.3   257  PRO257      0.0296
    210  CG        19.9030    0.7140   58.9020 C.3   257  PRO257      0.0237
    211  CD        20.6110    1.9530   59.4160 C.3   257  PRO257      0.0939
    212  N         23.5630   -0.0300   64.9300 N.3   260  MET260     -0.1245
    213  CA        22.8170   -1.0590   65.6300 C.3   260  MET260      0.1570
    214  C         23.4200   -2.4590   65.4960 C.2   260  MET260      0.2261
    215  O         23.4780   -3.2340   66.5030 O.2   260  MET260     -0.2867
    216  CB        21.3790   -1.0750   65.1710 C.3   260  MET260      0.0387
    217  CG        20.6370    0.1950   65.3400 C.3   260  MET260      0.0595
    218  SD        20.2310    0.6050   67.0210 S.3   260  MET260     -0.1393
    219  CE        19.1990    2.0180   66.5520 C.3   260  MET260      0.0692
    220  N         20.4120    5.6430   67.4920 N.3   290  MET290     -0.1245
    221  CA        19.7030    6.2900   66.4010 C.3   290  MET290      0.1570
    222  C         19.8860    7.8330   66.4130 C.2   290  MET290      0.2261
    223  O         20.1940    8.4450   65.3680 O.2   290  MET290     -0.2867
    224  CB        18.2460    5.8620   66.4330 C.3   290  MET290      0.0387
    225  CG        17.3250    6.5370   65.4120 C.3   290  MET290      0.0595
    226  SD        15.7080    5.7520   65.5000 S.3   290  MET290     -0.1393
    227  CE        16.1390    4.0000   65.2610 C.3   290  MET290      0.0692
@<TRIPOS>BOND
     1   123   122    2
     2   122   121    1
     3   120   121    1
     4    59    57   ar
     5    59    60   ar
     6   121   124    1
     7    57    55   ar
     8    60    58   ar
     9    55    54    1
    10    55    56   ar
    11   115   114    2
    12   112   113    1
    13    58    56   ar
    14   124   125    1
    15   114   113    1
    16    54    51    1
    17    51    50    1
    18    51    52    1
    19   113   116    1
    20    80    78    1
    21    43    44    1
    22   101   102    1
    23   111   110    2
    24    73    74    1
    25   125   127   ar
    26   125   126   ar
    27   110   109    1
    28    53    52    2
    29    52    61   am
    30   104   103    2
    31    78    79    1
    32    78    77    1
    33   127   129   ar
    34   102   103    1
    35   102   105    1
    36   103   108   am
    37    74    77    1
    38    74    75    1
    39    44    45    1
    40    44    47    1
    41   126   128   ar
    42   116   117    1
    43    89    90    1
    44    49    47    1
    45   108   109    1
    46    61    62    1
    47   117   119    1
    48   117   118    1
    49    45    46    2
    50    81    82    1
    51   129   130   ar
    52   107   105    1
    53   177   175   ar
    54   177   178   ar
    55    75    76    2
    56    47    48    1
    57    90    91    1
    58    90    93    1
    59   179   178    1
    60   105   106    1
    61   128   130   ar
    62    94    93    1
    63   175   173   ar
    64   178   176   ar
    65    99    98    2
    66    96    91   am
    67    96    97    1
    68    91    92    2
    69    98    97    1
    70    63    62    1
    71    63    64    2
    72    62    65    1
    73    82    83    1
    74    82    85    1
    75    87    86   ar
    76    93    95    1
    77    83    84    2
    78    97   100    1
    79   173   172    1
    80   173   174   ar
    81    86    85    1
    82    86    88   ar
    83   176   174   ar
    84    65    66    1
    85   171   170    2
    86   169   172    1
    87   169   168    1
    88   169   170    1
    89   188   186   ar
    90   188   190   ar
    91   136   135    1
    92   136   137    1
    93   131   132    1
    94   139   140    1
    95   139   133   am
    96   135   132    1
    97    66    67   ar
    98    66    68   ar
    99   140   141    1
   100   196   195    1
   101   186   185   ar
   102   190   189   ar
   103    41    39    1
   104    67    69   ar
   105   132   133    1
   106   141   142    2
   107    68    70   ar
   108    38    37    2
   109   133   134    2
   110   137   138    1
   111   189   187   ar
   112   185   187   ar
   113   185   184    1
   114    69    71   ar
   115    40    39    1
   116    40    42    1
   117    39    36    1
   118   195   192    1
   119    37    36    1
   120    70    71   ar
   121   158   157    2
   122   156   157    1
   123   156   155    1
   124   184   181    1
   125    36    35    1
   126    71    72    1
   127   157   159   am
   128   155   152    1
   129   192   191    1
   130   192   193    1
   131   191   182   am
   132   182   181    1
   133   182   183    2
   134   181   180    1
   135   149   148    1
   136   152   151    1
   137   152   153    1
   138   151   145   am
   139   193   194    2
   140    32    34   ar
   141    32    30   ar
   142   143   144    1
   143   148   147    1
   144   148   150    1
   145   147   144    1
   146    34    33   ar
   147   153   154    2
   148    30    29   ar
   149   145   144    1
   150   145   146    2
   151   210   211    1
   152   210   209    1
   153    27    26    2
   154    33    31   ar
   155     5     6    1
   156     5     2    1
   157   211   205    1
   158   209   206    1
   159    29    31   ar
   160    29    28    1
   161     1     2    1
   162    26    25    1
   163   166   165    2
   164     2     3    1
   165    28    25    1
   166   197   198    1
   167   205   206    1
   168   205   199   am
   169   206   207    1
   170    25    24    1
   171   164   165    1
   172   164   161    1
   173   165   167   am
   174   207   208    2
   175     3     4    2
   176     3     7   am
   177   160   161    1
   178   198   201    1
   179   198   199    1
   180   201   202    1
   181   201   203    1
   182   199   200    2
   183   204   202    1
   184   161   162    1
   185    24    20   am
   186   162   163    2
   187     7     8    1
   188     8     9    1
   189     8    11    1
   190    10     9    2
   191     9    18   am
   192    20    21    2
   193    20    19    1
   194    12    11    1
   195    12    13    1
   196    18    19    1
   197    19    22    1
   198    13    14    1
   199    14    15    2
   200    15    17    1
   201    15    16    1
   202   212   213    1
   203   216   217    1
   204   216   213    1
   205    22    23    1
   206   227   226    1
   207   217   218    1
   208   223   222    2
   209   225   226    1
   210   225   224    1
   211   214   213    1
   212   214   215    2
   213   221   222    1
   214   221   224    1
   215   221   220    1
   216   219   218    1
