@<TRIPOS>MOLECULE
tmp/3aszA00.pdb
 176 167 0 0 0
SMALL
GASTEIGER

@<TRIPOS>ATOM
      1  N         11.1990    4.1840    2.2550 N.3    11  THR11      -0.1203
      2  CA        11.3070    4.5610    0.8540 C.3    11  THR11       0.1994
      3  C         10.0220    5.2970    0.4560 C.2    11  THR11       0.2617
      4  O          8.9380    4.9560    0.9390 O.2    11  THR11      -0.2717
      5  CB        11.5050    3.3310   -0.0470 C.3    11  THR11       0.1784
      6  OG1       11.5930    3.7530   -1.4110 O.3    11  THR11      -0.2211
      7  CG2       10.3480    2.3490    0.1090 C.3    11  THR11       0.0376
      8  N         10.1680    6.3600   -0.3370 N.am   12  ALA12      -0.1979
      9  CA         9.0420    7.1710   -0.8090 C.3    12  ALA12       0.1597
     10  C          8.2150    7.7930    0.3250 C.2    12  ALA12       0.2287
     11  O          7.0150    8.0520    0.1690 O.2    12  ALA12      -0.2864
     12  CB         8.1330    6.3440   -1.7370 C.3    12  ALA12       0.0319
     13  N         11.1790   11.7910    2.4840 N.3    15  LYS15      -0.1231
     14  CA        12.4980   12.1680    3.0060 C.3    15  LYS15       0.1693
     15  C         13.3710   12.8020    1.9260 C.2    15  LYS15       0.2592
     16  O         14.1030   13.7550    2.1880 O.2    15  LYS15      -0.2718
     17  CB        13.2180   10.9310    3.5530 C.3    15  LYS15       0.0285
     18  CG        13.4670    9.8650    2.4860 C.3    15  LYS15       0.0035
     19  CD        14.3100    8.7160    2.9900 C.3    15  LYS15       0.0206
     20  CE        14.4780    7.6570    1.9050 C.3    15  LYS15       0.1093
     21  NZ        15.0390    8.2000    0.6310 N.3    15  LYS15      -0.1314
     22  N         13.3050   12.2520    0.7160 N.am   16  THR16      -0.1953
     23  CA        14.0980   12.7640   -0.3950 C.3    16  THR16       0.1897
     24  C         13.6450   14.1580   -0.7860 C.2    16  THR16       0.2313
     25  O         14.4620   15.0690   -0.8990 O.2    16  THR16      -0.2863
     26  CB        14.0280   11.8320   -1.6210 C.3    16  THR16       0.1794
     27  OG1       14.6150   10.5700   -1.2850 O.3    16  THR16      -0.2208
     28  CG2       14.7880   12.4390   -2.8070 C.3    16  THR16       0.0378
     29  N         21.3120    6.6410   -0.6490 N.3    36  ASP36      -0.1239
     30  CA        20.8130    5.7060   -1.6620 C.3    36  ASP36       0.1674
     31  C         21.7290    5.5820   -2.8710 C.2    36  ASP36       0.2266
     32  O         21.5190    4.7360   -3.7360 O.2    36  ASP36      -0.2867
     33  CB        19.3770    6.0510   -2.1100 C.3    36  ASP36       0.1410
     34  CG        19.2770    7.3610   -2.9150 C.2    36  ASP36       0.3668
     35  OD1       20.2880    8.0770   -3.0960 O.co2  36  ASP36      -0.2456
     36  OD2       18.1550    7.6830   -3.3660 O.co2  36  ASP36      -0.2456
     37  N         25.1780    2.4740   -2.5650 N.3    39  TYR39      -0.1241
     38  CA        25.0560    1.0200   -2.5610 C.3    39  TYR39       0.1605
     39  C         26.4180    0.4600   -2.9550 C.2    39  TYR39       0.2264
     40  O         27.1700    1.1020   -3.6970 O.2    39  TYR39      -0.2867
     41  CB        23.9910    0.5570   -3.5540 C.3    39  TYR39       0.0534
     42  CG        22.5910    0.6560   -2.9940 C.ar   39  TYR39      -0.0201
     43  CD1       22.1500   -0.2380   -2.0150 C.ar   39  TYR39      -0.0009
     44  CD2       21.7150    1.6540   -3.4200 C.ar   39  TYR39      -0.0009
     45  CE1       20.8720   -0.1400   -1.4750 C.ar   39  TYR39       0.0417
     46  CE2       20.4380    1.7600   -2.8830 C.ar   39  TYR39       0.0417
     47  CZ        20.0250    0.8590   -1.9120 C.ar   39  TYR39       0.1957
     48  OH        18.7660    0.9620   -1.3760 O.3    39  TYR39      -0.2866
     49  N         18.3080   -4.9160   -1.4380 N.3    55  TYR55      -0.1227
     50  CA        18.7690   -3.5370   -1.3450 C.3    55  TYR55       0.1736
     51  C         18.1980   -2.7270   -0.1870 C.2    55  TYR55       0.2595
     52  O         18.3660   -1.5070   -0.1200 O.2    55  TYR55      -0.2718
     53  CB        18.5410   -2.8260   -2.6720 C.3    55  TYR55       0.0548
     54  CG        19.3500   -3.4280   -3.7960 C.ar   55  TYR55      -0.0200
     55  CD1       20.6870   -3.0860   -3.9710 C.ar   55  TYR55      -0.0009
     56  CD2       18.7770   -4.3380   -4.6850 C.ar   55  TYR55      -0.0009
     57  CE1       21.4390   -3.6290   -5.0000 C.ar   55  TYR55       0.0417
     58  CE2       19.5190   -4.8890   -5.7230 C.ar   55  TYR55       0.0417
     59  CZ        20.8530   -4.5280   -5.8730 C.ar   55  TYR55       0.1957
     60  OH        21.6050   -5.0690   -6.8870 O.3    55  TYR55      -0.2866
     61  N         17.5480   -3.4130    0.7400 N.am   56  ASP56      -0.1974
     62  CA        16.9860   -2.7480    1.9010 C.3    56  ASP56       0.1709
     63  C         17.6260   -3.2330    3.1980 C.2    56  ASP56       0.2293
     64  O         17.2430   -2.8090    4.2880 O.2    56  ASP56      -0.2864
     65  CB        15.4740   -2.9190    1.9080 C.3    56  ASP56       0.1436
     66  CG        14.8220   -2.1960    0.7590 C.2    56  ASP56       0.3671
     67  OD1       14.3460   -1.0650    0.9770 O.co2  56  ASP56      -0.2456
     68  OD2       14.8230   -2.7380   -0.3690 O.co2  56  ASP56      -0.2456
     69  N         24.4890    5.9490   -8.2880 N.3    84  TYR84      -0.1241
     70  CA        23.9630    4.6120   -8.5290 C.3    84  TYR84       0.1605
     71  C         22.8970    4.6280   -9.6240 C.2    84  TYR84       0.2264
     72  O         21.9540    5.4200   -9.5750 O.2    84  TYR84      -0.2867
     73  CB        23.3870    4.0110   -7.2440 C.3    84  TYR84       0.0534
     74  CG        23.0370    2.5450   -7.3760 C.ar   84  TYR84      -0.0201
     75  CD1       24.0060    1.5600   -7.1880 C.ar   84  TYR84      -0.0009
     76  CD2       21.7480    2.1430   -7.7270 C.ar   84  TYR84      -0.0009
     77  CE1       23.7050    0.2140   -7.3500 C.ar   84  TYR84       0.0417
     78  CE2       21.4330    0.7940   -7.8910 C.ar   84  TYR84       0.0417
     79  CZ        22.4160   -0.1650   -7.7040 C.ar   84  TYR84       0.1957
     80  OH        22.1170   -1.5010   -7.8840 O.3    84  TYR84      -0.2866
     81  N         19.8790    3.0090  -11.0320 N.3    86  PHE86      -0.1241
     82  CA        18.8040    2.0980  -10.6530 C.3    86  PHE86       0.1605
     83  C         18.2220    1.2600  -11.7930 C.2    86  PHE86       0.2264
     84  O         17.5960    0.2280  -11.5530 O.2    86  PHE86      -0.2867
     85  CB        17.7100    2.8620   -9.9030 C.3    86  PHE86       0.0534
     86  CG        18.1790    3.4530   -8.6030 C.ar   86  PHE86      -0.0203
     87  CD1       18.2260    2.6780   -7.4500 C.ar   86  PHE86      -0.0042
     88  CD2       18.6080    4.7720   -8.5390 C.ar   86  PHE86      -0.0042
     89  CE1       18.6970    3.2120   -6.2470 C.ar   86  PHE86      -0.0003
     90  CE2       19.0810    5.3150   -7.3430 C.ar   86  PHE86      -0.0003
     91  CZ        19.1250    4.5330   -6.1970 C.ar   86  PHE86      -0.0000
     92  N         21.2350   -1.3490  -12.3170 N.3    89  TYR89      -0.1241
     93  CA        21.6120   -2.0430  -11.0840 C.3    89  TYR89       0.1605
     94  C         23.1280   -2.0280  -10.8810 C.2    89  TYR89       0.2264
     95  O         23.7350   -3.0620  -10.6150 O.2    89  TYR89      -0.2867
     96  CB        21.1100   -3.4930  -11.0910 C.3    89  TYR89       0.0534
     97  CG        19.6450   -3.6670  -10.7610 C.ar   89  TYR89      -0.0201
     98  CD1       19.2520   -4.2240   -9.5450 C.ar   89  TYR89      -0.0009
     99  CD2       18.6530   -3.2870  -11.6660 C.ar   89  TYR89      -0.0009
    100  CE1       17.9080   -4.4010   -9.2330 C.ar   89  TYR89       0.0417
    101  CE2       17.3030   -3.4590  -11.3650 C.ar   89  TYR89       0.0417
    102  CZ        16.9400   -4.0180  -10.1470 C.ar   89  TYR89       0.1957
    103  OH        15.6120   -4.1940   -9.8430 O.3    89  TYR89      -0.2866
    104  N         18.5920    9.1760    3.7990 N.3   108  GLY108     -0.1210
    105  CA        18.3990    7.8380    3.2680 C.3   108  GLY108      0.1956
    106  C         17.5410    6.9890    4.1880 C.2   108  GLY108      0.2611
    107  O         17.2590    7.3850    5.3250 O.2   108  GLY108     -0.2717
    108  N         17.1460    5.8080    3.7190 N.am  109  ILE109     -0.1979
    109  CA        16.3170    4.9270    4.5310 C.3   109  ILE109      0.1595
    110  C         16.9900    4.4420    5.8180 C.2   109  ILE109      0.2287
    111  O         16.3330    4.3060    6.8520 O.2   109  ILE109     -0.2864
    112  CB        15.8310    3.6870    3.7270 C.3   109  ILE109      0.0276
    113  CG1       17.0250    2.8990    3.1750 C.3   109  ILE109      0.0022
    114  CG2       14.8930    4.1190    2.5960 C.3   109  ILE109      0.0022
    115  CD1       16.6570    1.5300    2.6420 C.3   109  ILE109      0.0001
    116  N          6.1490    4.7330   -4.2790 N.3   138  ARG138     -0.1245
    117  CA         7.2490    3.8370   -4.6430 C.3   138  ARG138      0.1563
    118  C          6.9410    3.1790   -5.9960 C.2   138  ARG138      0.2260
    119  O          7.7820    3.1600   -6.8930 O.2   138  ARG138     -0.2867
    120  CB         7.4420    2.7730   -3.5570 C.3   138  ARG138      0.0307
    121  CG         8.3760    1.6170   -3.9170 C.3   138  ARG138      0.0489
    122  CD         9.8170    2.0590   -4.2030 C.3   138  ARG138      0.2205
    123  NE        10.6510    0.8980   -4.5270 N.pl3 138  ARG138     -0.0865
    124  CZ        11.6340    0.4240   -3.7590 C.cat 138  ARG138      0.5346
    125  NH1       11.9400    1.0100   -2.6060 N.pl3 138  ARG138      0.1354
    126  NH2       12.2840   -0.6720   -4.1270 N.pl3 138  ARG138      0.1354
    127  N          7.2240    5.8740   -8.9460 N.3   141  ARG141     -0.1231
    128  CA         8.5990    6.2620   -9.2620 C.3   141  ARG141      0.1694
    129  C          9.3990    5.1100   -9.8750 C.2   141  ARG141      0.2592
    130  O         10.2140    5.3260  -10.7680 O.2   141  ARG141     -0.2718
    131  CB         9.3010    6.8020   -8.0140 C.3   141  ARG141      0.0321
    132  CG         9.6980    5.7200   -7.0450 C.3   141  ARG141      0.0489
    133  CD        11.1710    5.3990   -7.1840 C.3   141  ARG141      0.2205
    134  NE        11.9100    6.1580   -6.1930 N.pl3 141  ARG141     -0.0865
    135  CZ        12.4320    5.6280   -5.0980 C.cat 141  ARG141      0.5346
    136  NH1       12.3230    4.3250   -4.8660 N.pl3 141  ARG141      0.1354
    137  NH2       12.9760    6.4200   -4.1950 N.pl3 141  ARG141      0.1354
    138  N          9.1610    3.8900   -9.3990 N.am  142  ASP142     -0.1974
    139  CA         9.8690    2.7290   -9.9290 C.3   142  ASP142      0.1709
    140  C          9.5210    2.4880  -11.3920 C.2   142  ASP142      0.2293
    141  O         10.4100    2.2750  -12.2190 O.2   142  ASP142     -0.2864
    142  CB         9.5730    1.4770   -9.1030 C.3   142  ASP142      0.1436
    143  CG        10.4730    1.3450   -7.8930 C.2   142  ASP142      0.3671
    144  OD1       11.1990    2.3060   -7.5720 O.co2 142  ASP142     -0.2456
    145  OD2       10.4590    0.2650   -7.2630 O.co2 142  ASP142     -0.2456
    146  N         12.7500    4.0310  -12.8140 N.3   146  ARG146     -0.1245
    147  CA        13.7210    2.9580  -12.6560 C.3   146  ARG146      0.1563
    148  C         13.4840    1.7080  -13.4990 C.2   146  ARG146      0.2260
    149  O         14.0130    0.6420  -13.1960 O.2   146  ARG146     -0.2867
    150  CB        13.8600    2.6260  -11.1650 C.3   146  ARG146      0.0307
    151  CG        14.1940    3.8720  -10.3350 C.3   146  ARG146      0.0489
    152  CD        14.3020    3.6210   -8.8340 C.3   146  ARG146      0.2205
    153  NE        14.8000    4.8160   -8.1520 N.pl3 146  ARG146     -0.0865
    154  CZ        15.2580    4.8510   -6.9010 C.cat 146  ARG146      0.5346
    155  NH1       15.2840    3.7540   -6.1610 N.pl3 146  ARG146      0.1354
    156  NH2       15.7170    5.9890   -6.3970 N.pl3 146  ARG146      0.1354
    157  N         11.0170   -0.3930  -13.8640 N.3   148  ARG148     -0.1245
    158  CA        10.4320   -1.5670  -13.2200 C.3   148  ARG148      0.1563
    159  C          8.9970   -1.7930  -13.6860 C.2   148  ARG148      0.2260
    160  O          8.3520   -0.8830  -14.2120 O.2   148  ARG148     -0.2867
    161  CB        10.4520   -1.4030  -11.6860 C.3   148  ARG148      0.0307
    162  CG        11.7780   -0.8850  -11.0980 C.3   148  ARG148      0.0489
    163  CD        12.9380   -1.8480  -11.3670 C.3   148  ARG148      0.2205
    164  NE        14.2440   -1.3020  -10.9830 N.pl3 148  ARG148     -0.0865
    165  CZ        14.6900   -1.2130   -9.7330 C.cat 148  ARG148      0.5346
    166  NH1       13.9390   -1.6270   -8.7230 N.pl3 148  ARG148      0.1354
    167  NH2       15.9070   -0.7390   -9.4910 N.pl3 148  ARG148      0.1354
    168  N          9.3500   -7.4550   -5.2180 N.3   156  GLN156     -0.1245
    169  CA        10.4360   -6.8890   -4.4190 C.3   156  GLN156      0.1566
    170  C          9.9260   -6.2820   -3.1040 C.2   156  GLN156      0.2260
    171  O         10.5250   -6.4790   -2.0420 O.2   156  GLN156     -0.2867
    172  CB        11.1920   -5.8170   -5.2200 C.3   156  GLN156      0.0367
    173  CG        12.4010   -5.2640   -4.4860 C.3   156  GLN156      0.0905
    174  CD        12.9620   -4.0040   -5.1140 C.2   156  GLN156      0.2608
    175  OE1       12.3060   -3.3520   -5.9180 O.2   156  GLN156     -0.2717
    176  NE2       14.1710   -3.6380   -4.7200 N.am  156  GLN156     -0.0878
@<TRIPOS>BOND
     1   160   159    2
     2   157   158    1
     3   159   158    1
     4   148   149    2
     5   148   147    1
     6   158   161    1
     7   146   147    1
     8   147   150    1
     9    92    93    1
    10   141   140    2
    11    83    84    2
    12    83    82    1
    13   161   162    1
    14    99   101   ar
    15    99    97   ar
    16   140   139    1
    17   163   162    1
    18   163   164    1
    19   101   102   ar
    20   150   151    1
    21    96    93    1
    22    96    97    1
    23    93    94    1
    24    81    82    1
    25   164   165    2
    26    94    95    2
    27   130   129    2
    28    97    98   ar
    29    82    85    1
    30   151   152    1
    31   102   103    1
    32   102   100   ar
    33   139   138    1
    34   139   142    1
    35    85    86    1
    36   129   138   am
    37   129   128    1
    38   165   167    1
    39   165   166    1
    40    71    72    2
    41    71    70    1
    42    98   100   ar
    43   128   127    1
    44   128   131    1
    45   142   143    1
    46   152   153    1
    47    86    88   ar
    48    86    87   ar
    49    88    90   ar
    50    70    69    1
    51    70    73    1
    52   153   154    2
    53   131   132    1
    54   143   144   ar
    55   143   145   ar
    56    78    76   ar
    57    78    79   ar
    58    80    79    1
    59    76    74   ar
    60    79    77   ar
    61    87    89   ar
    62    74    73    1
    63    74    75   ar
    64    77    75   ar
    65    90    91   ar
    66   133   132    1
    67   133   134    1
    68   154   156    1
    69   154   155    1
    70   119   118    2
    71    60    59    1
    72    89    91   ar
    73   134   135    2
    74   118   117    1
    75   175   174    2
    76    59    58   ar
    77    59    57   ar
    78    58    56   ar
    79   172   173    1
    80   172   169    1
    81   168   169    1
    82   174   176   am
    83   174   173    1
    84   135   136    1
    85   135   137    1
    86    57    55   ar
    87    56    54   ar
    88   117   116    1
    89   117   120    1
    90   123   122    1
    91   123   124    2
    92   169   170    1
    93   122   121    1
    94   126   124    1
    95    55    54   ar
    96   121   120    1
    97    54    53    1
    98   124   125    1
    99    32    31    2
   100    40    39    2
   101    41    42    1
   102    41    38    1
   103    44    42   ar
   104    44    46   ar
   105    36    34   ar
   106   170   171    2
   107    35    34   ar
   108    42    43   ar
   109    39    38    1
   110    34    33    1
   111    46    47   ar
   112    31    30    1
   113    28    26    1
   114    53    50    1
   115    37    38    1
   116    33    30    1
   117    43    45   ar
   118    47    45   ar
   119    47    48    1
   120    12     9    1
   121    30    29    1
   122    26    27    1
   123    26    23    1
   124    49    50    1
   125     6     5    1
   126    50    51    1
   127    25    24    2
   128     9     8    1
   129     9    10    1
   130    24    23    1
   131    23    22    1
   132    68    66   ar
   133     8     3   am
   134    51    52    2
   135    51    61   am
   136     5     7    1
   137     5     2    1
   138    11    10    2
   139     3     2    1
   140     3     4    2
   141    21    20    1
   142    22    15   am
   143    61    62    1
   144    66    67   ar
   145    66    65    1
   146     2     1    1
   147    62    65    1
   148    62    63    1
   149    20    19    1
   150    15    16    2
   151    15    14    1
   152    13    14    1
   153    18    19    1
   154    18    17    1
   155   114   112    1
   156   115   113    1
   157    14    17    1
   158   113   112    1
   159    63    64    2
   160   105   104    1
   161   105   106    1
   162   108   106   am
   163   108   109    1
   164   112   109    1
   165   106   107    2
   166   109   110    1
   167   110   111    2
