@<TRIPOS>MOLECULE
tmp/3at3A00.pdb
 166 160 0 0 0
SMALL
GASTEIGER

@<TRIPOS>ATOM
      1  N         61.8860   12.8300    9.4700 N.3    43  ARG43      -0.1245
      2  CA        61.4180   14.1680    9.8060 C.3    43  ARG43       0.1563
      3  C         60.5840   14.1990   11.0930 C.2    43  ARG43       0.2260
      4  O         59.8060   13.2900   11.3560 O.2    43  ARG43      -0.2867
      5  CB        60.5790   14.6990    8.6440 C.3    43  ARG43       0.0307
      6  CG        60.1170   16.1290    8.7630 C.3    43  ARG43       0.0489
      7  CD        59.1760   16.4740    7.6160 C.3    43  ARG43       0.2205
      8  NE        57.9790   15.6330    7.6380 N.pl3  43  ARG43      -0.0865
      9  CZ        56.9330   15.7990    6.8190 C.cat  43  ARG43       0.5346
     10  NH1       55.8810   14.9890    6.9180 N.pl3  43  ARG43       0.1354
     11  NH2       56.9390   16.7680    5.9190 N.pl3  43  ARG43       0.1354
     12  N         57.6480   15.1860   13.4430 N.3    45  LEU45      -0.1231
     13  CA        56.2480   15.5140   13.2260 C.3    45  LEU45       0.1693
     14  C         55.6840   16.3190   14.3860 C.2    45  LEU45       0.2593
     15  O         54.7520   17.1170   14.2020 O.2    45  LEU45      -0.2718
     16  CB        55.4210   14.2340   13.0690 C.3    45  LEU45       0.0284
     17  CG        55.6970   13.4300   11.8050 C.3    45  LEU45       0.0019
     18  CD1       54.8510   12.1570   11.7970 C.3    45  LEU45       0.0001
     19  CD2       55.3900   14.3050   10.6050 C.3    45  LEU45       0.0001
     20  N         56.2430   16.1100   15.5630 N.am   46  GLY46      -0.1942
     21  CA        55.7760   16.8140   16.7450 C.3    46  GLY46       0.2014
     22  C         56.2710   16.1220   18.0020 C.2    46  GLY46       0.2638
     23  O         56.8880   15.0610   17.9260 O.2    46  GLY46      -0.2714
     24  N         56.0000   16.7100   19.1610 N.am   47  ARG47      -0.1977
     25  CA        56.4530   16.1160   20.4130 C.3    47  ARG47       0.1597
     26  C         55.4330   16.1430   21.5450 C.2    47  ARG47       0.2287
     27  O         54.2330   16.3350   21.3320 O.2    47  ARG47      -0.2864
     28  CB        57.7460   16.7950   20.8700 C.3    47  ARG47       0.0334
     29  CG        57.6090   18.2790   21.1830 C.3    47  ARG47       0.0492
     30  CD        58.9450   18.8940   21.5980 C.3    47  ARG47       0.2205
     31  NE        58.8280   20.3180   21.9020 N.pl3  47  ARG47      -0.0865
     32  CZ        58.0890   20.8200   22.8920 C.cat  47  ARG47       0.5346
     33  NH1       58.0380   22.1310   23.0890 N.pl3  47  ARG47       0.1354
     34  NH2       57.3970   20.0090   23.6900 N.pl3  47  ARG47       0.1354
     35  N         57.5160   12.2970   18.2820 N.3    53  VAL53      -0.1245
     36  CA        57.0890   11.5550   17.0990 C.3    53  VAL53       0.1561
     37  C         57.7660   11.9930   15.8040 C.2    53  VAL53       0.2260
     38  O         57.9740   13.1810   15.5700 O.2    53  VAL53      -0.2867
     39  CB        55.5570   11.6690   16.9450 C.3    53  VAL53       0.0252
     40  CG1       55.0970   11.0230   15.6510 C.3    53  VAL53       0.0019
     41  CG2       54.8830   11.0020   18.1350 C.3    53  VAL53       0.0019
     42  N         55.7380    5.8020   10.8970 N.3    66  VAL66      -0.1245
     43  CA        55.8100    6.8580   11.8930 C.3    66  VAL66       0.1561
     44  C         56.3780    6.2420   13.1690 C.2    66  VAL66       0.2260
     45  O         55.8680    5.2410   13.6650 O.2    66  VAL66      -0.2867
     46  CB        54.4010    7.4600   12.1450 C.3    66  VAL66       0.0252
     47  CG1       54.4490    8.4040   13.3350 C.3    66  VAL66       0.0019
     48  CG2       53.9390    8.2130   10.9180 C.3    66  VAL66       0.0019
     49  N         57.3790    6.5820   17.1860 N.3    68  LYS68      -0.1245
     50  CA        57.1440    7.3000   18.4150 C.3    68  LYS68       0.1561
     51  C         58.2290    6.9280   19.4250 C.2    68  LYS68       0.2260
     52  O         58.2030    5.8340   19.9880 O.2    68  LYS68      -0.2867
     53  CB        55.7830    6.9240   18.9730 C.3    68  LYS68       0.0271
     54  CG        55.4280    7.5640   20.2910 C.3    68  LYS68       0.0035
     55  CD        54.0450    7.1360   20.6620 C.3    68  LYS68       0.0206
     56  CE        53.5130    7.8390   21.8800 C.3    68  LYS68       0.1093
     57  NZ        52.0830    7.5060   22.0130 N.3    68  LYS68      -0.1314
     58  N         44.8540    3.0890   14.7270 N.3    95  ILE95      -0.1245
     59  CA        46.1920    3.1180   14.1180 C.3    95  ILE95       0.1561
     60  C         46.8210    1.7460   14.3490 C.2    95  ILE95       0.2260
     61  O         46.5870    1.1200   15.3790 O.2    95  ILE95      -0.2867
     62  CB        47.1030    4.2080   14.7230 C.3    95  ILE95       0.0252
     63  CG1       48.3320    4.4040   13.8340 C.3    95  ILE95       0.0019
     64  CG2       47.5510    3.8110   16.1240 C.3    95  ILE95       0.0019
     65  CD1       48.0150    4.9330   12.4590 C.3    95  ILE95       0.0001
     66  N         54.3550    2.9020   13.9710 N.3   113  PHE113     -0.1227
     67  CA        52.9910    2.8080   13.4750 C.3   113  PHE113      0.1736
     68  C         52.8500    2.9280   11.9690 C.2   113  PHE113      0.2595
     69  O         53.7830    3.3220   11.2740 O.2   113  PHE113     -0.2718
     70  CB        52.1450    3.9170   14.1070 C.3   113  PHE113      0.0547
     71  CG        52.1560    3.9270   15.6150 C.ar  113  PHE113     -0.0202
     72  CD1       51.1700    3.2720   16.3290 C.ar  113  PHE113     -0.0042
     73  CD2       53.1660    4.5740   16.3050 C.ar  113  PHE113     -0.0042
     74  CE1       51.1810    3.2890   17.7100 C.ar  113  PHE113     -0.0003
     75  CE2       53.1900    4.5900   17.6830 C.ar  113  PHE113     -0.0003
     76  CZ        52.1910    3.9440   18.3920 C.ar  113  PHE113     -0.0000
     77  N         51.6690    2.5880   11.4710 N.am  114  GLU114     -0.1965
     78  CA        51.4070    2.6950   10.0430 C.3   114  GLU114      0.1733
     79  C         51.4090    4.1960    9.8340 C.2   114  GLU114      0.2616
     80  O         51.1120    4.9530   10.7660 O.2   114  GLU114     -0.2715
     81  CB        50.0220    2.1640    9.6950 C.3   114  GLU114      0.0429
     82  CG        48.9060    3.0590   10.1870 C.3   114  GLU114      0.1163
     83  CD        47.5340    2.5960    9.7470 C.2   114  GLU114      0.3649
     84  OE1       47.2390    2.6330    8.5320 O.co2 114  GLU114     -0.2457
     85  OE2       46.7400    2.1850   10.6170 O.co2 114  GLU114     -0.2457
     86  N         51.7330    4.6380    8.6370 N.am  115  HIS115     -0.1959
     87  CA        51.7400    6.0700    8.3820 C.3   115  HIS115      0.1787
     88  C         50.5150    6.4910    7.5910 C.2   115  HIS115      0.2620
     89  O         50.0670    5.7710    6.6990 O.2   115  HIS115     -0.2715
     90  CB        53.0110    6.4690    7.6290 C.3   115  HIS115      0.0785
     91  CG        52.9170    7.7970    6.9790 C.ar  115  HIS115      0.0821
     92  ND1       52.2850    8.0070    5.7880 N.ar  115  HIS115     -0.2267
     93  CD2       53.3400    9.0300    7.3980 C.ar  115  HIS115      0.1154
     94  CE1       52.3180    9.3000    5.4740 C.ar  115  HIS115      0.1986
     95  NE2       52.9470    9.9380    6.4350 N.ar  115  HIS115     -0.2212
     96  N         49.9680    7.6470    7.9390 N.am  116  VAL116     -0.1977
     97  CA        48.7880    8.2110    7.2900 C.3   116  VAL116      0.1596
     98  C         49.1240    9.6050    6.7280 C.2   116  VAL116      0.2287
     99  O         49.6160   10.4620    7.4650 O.2   116  VAL116     -0.2864
    100  CB        47.6190    8.3660    8.2800 C.3   116  VAL116      0.0276
    101  CG1       46.4070    8.9300    7.5760 C.3   116  VAL116      0.0022
    102  CG2       47.3010    7.0270    8.9190 C.3   116  VAL116      0.0022
    103  N         48.3020   12.4790    6.6300 N.3   118  ASN118     -0.1240
    104  CA        47.4720   13.4440    7.3420 C.3   118  ASN118      0.1653
    105  C         47.4850   14.9070    6.8910 C.2   118  ASN118      0.2266
    106  O         48.5050   15.4200    6.4380 O.2   118  ASN118     -0.2867
    107  CB        47.8630   13.3810    8.8170 C.3   118  ASN118      0.1155
    108  CG        46.9660   14.2350    9.6880 C.2   118  ASN118      0.2627
    109  OD1       45.7820   13.9550    9.8550 O.2   118  ASN118     -0.2716
    110  ND2       47.5460   15.2830   10.2600 N.am  118  ASN118     -0.0877
    111  N         43.9400   16.5560   17.3500 N.3   160  HIS160     -0.1226
    112  CA        45.3620   16.1990   17.3180 C.3   160  HIS160      0.1752
    113  C         45.5940   14.6720   17.2350 C.2   160  HIS160      0.2596
    114  O         46.5120   14.2130   16.5500 O.2   160  HIS160     -0.2718
    115  CB        46.0620   16.7480   18.5680 C.3   160  HIS160      0.0759
    116  CG        45.6530   18.1430   18.9160 C.ar  160  HIS160      0.0818
    117  ND1       44.3550   18.4880   19.2300 N.ar  160  HIS160     -0.2268
    118  CD2       46.3640   19.2930   18.9790 C.ar  160  HIS160      0.1154
    119  CE1       44.2800   19.7800   19.4640 C.ar  160  HIS160      0.1986
    120  NE2       45.4900   20.2900   19.3190 N.ar  160  HIS160     -0.2212
    121  N         44.7740   13.9020   17.9270 N.am  161  ASN161     -0.1974
    122  CA        44.9240   12.4500   17.9090 C.3   161  ASN161      0.1688
    123  C         44.0830   11.6950   16.8940 C.2   161  ASN161      0.2292
    124  O         43.8460   10.4980   17.0310 O.2   161  ASN161     -0.2864
    125  CB        44.6890   11.8730   19.3140 C.3   161  ASN161      0.1181
    126  CG        45.8110   12.2120   20.2720 C.2   161  ASN161      0.2629
    127  OD1       46.9340   12.4710   19.8450 O.2   161  ASN161     -0.2716
    128  ND2       45.5200   12.2120   21.5660 N.am  161  ASN161     -0.0877
    129  N         44.1220   11.0910   12.8960 N.3   163  MET163     -0.1245
    130  CA        44.7950   11.2990   11.6210 C.3   163  MET163      0.1570
    131  C         43.8520   11.0990   10.4490 C.2   163  MET163      0.2261
    132  O         43.0890   10.1320   10.3970 O.2   163  MET163     -0.2867
    133  CB        45.9880   10.3370   11.5050 C.3   163  MET163      0.0387
    134  CG        47.1180   10.6320   12.4870 C.3   163  MET163      0.0595
    135  SD        47.8430   12.2510   12.1940 S.3   163  MET163     -0.1393
    136  CE        47.2950   13.1630   13.6660 C.3   163  MET163      0.0692
    137  N         44.7700    7.7970   16.8730 N.3   174  ILE174     -0.1231
    138  CA        46.1040    7.5250   17.3880 C.3   174  ILE174      0.1692
    139  C         46.3390    7.8980   18.8630 C.2   174  ILE174      0.2592
    140  O         45.4240    8.2820   19.5760 O.2   174  ILE174     -0.2718
    141  CB        47.1840    8.2470   16.5650 C.3   174  ILE174      0.0266
    142  CG1       47.0240    9.7640   16.7370 C.3   174  ILE174      0.0019
    143  CG2       47.0740    7.8300   15.1060 C.3   174  ILE174      0.0020
    144  CD1       48.0610   10.5680   15.9980 C.3   174  ILE174      0.0001
    145  N         47.5940    7.7500   19.2700 N.am  175  ASP175     -0.1960
    146  CA        48.0600    8.0260   20.6110 C.3   175  ASP175      0.1840
    147  C         47.2330    7.4510   21.7520 C.2   175  ASP175      0.2622
    148  O         46.3400    8.1000   22.3030 O.2   175  ASP175     -0.2715
    149  CB        48.2040    9.5300   20.8170 C.3   175  ASP175      0.1450
    150  CG        48.9710    9.8670   22.0650 C.2   175  ASP175      0.3671
    151  OD1       49.1210   11.0620   22.3610 O.co2 175  ASP175     -0.2456
    152  OD2       49.4310    8.9190   22.7440 O.co2 175  ASP175     -0.2456
    153  N         47.5540    6.2030   22.1260 N.am  176  TRP176     -0.1974
    154  CA        46.8290    5.5500   23.2040 C.3   176  TRP176      0.1640
    155  C         47.7240    5.4770   24.4440 C.2   176  TRP176      0.2290
    156  O         47.7120    4.4800   25.1640 O.2   176  TRP176     -0.2864
    157  CB        46.3950    4.1510   22.7720 C.3   176  TRP176      0.0576
    158  CG        45.6210    4.1620   21.4900 C.ar  176  TRP176      0.0006
    159  CD1       46.0760    4.5700   20.2630 C.ar  176  TRP176      0.0946
    160  CD2       44.2520    3.8180   21.3140 C.ar  176  TRP176      0.0152
    161  NE1       45.0740    4.4960   19.3420 N.ar  176  TRP176     -0.2442
    162  CE2       43.9400    4.0350   19.9490 C.ar  176  TRP176      0.0810
    163  CE3       43.2490    3.3470   22.1690 C.ar  176  TRP176      0.0012
    164  CZ2       42.6670    3.8090   19.4280 C.ar  176  TRP176      0.0191
    165  CZ3       41.9860    3.1200   21.6480 C.ar  176  TRP176      0.0001
    166  CH2       41.7060    3.3370   20.2910 C.ar  176  TRP176      0.0015
@<TRIPOS>BOND
     1    94    92   ar
     2    94    95   ar
     3    92    91   ar
     4    11     9    1
     5    95    93   ar
     6   106   105    2
     7   103   104    1
     8    89    88    2
     9    98    97    1
    10    98    99    2
    11     9    10    1
    12     9     8    2
    13   105   104    1
    14    91    93   ar
    15    91    90    1
    16    97    96    1
    17    97   100    1
    18   104   107    1
    19   101   100    1
    20    88    96   am
    21    88    87    1
    22     7     8    1
    23     7     6    1
    24    90    87    1
    25   100   102    1
    26    87    86    1
    27    84    83   ar
    28    86    79   am
    29     5     6    1
    30     5     2    1
    31   107   108    1
    32     1     2    1
    33   108   109    2
    34   108   110   am
    35    81    78    1
    36    81    82    1
    37    83    82    1
    38    83    85   ar
    39     2     3    1
    40    79    78    1
    41    79    80    2
    42    78    77    1
    43   132   131    2
    44   131   130    1
    45    19    17    1
    46    42    43    1
    47    48    46    1
    48     3     4    2
    49    69    68    2
    50    77    68   am
    51   133   130    1
    52   133   134    1
    53   130   129    1
    54    18    17    1
    55    17    16    1
    56    43    46    1
    57    43    44    1
    58    68    67    1
    59    46    47    1
    60   135   134    1
    61   135   136    1
    62    65    63    1
    63    16    13    1
    64    44    45    2
    65    13    12    1
    66    13    14    1
    67    67    66    1
    68    67    70    1
    69    63    62    1
    70    70    71    1
    71    59    60    1
    72    59    62    1
    73    59    58    1
    74    15    14    2
    75    60    61    2
    76    14    20   am
    77    62    64    1
    78   143   141    1
    79    20    21    1
    80    38    37    2
    81    71    73   ar
    82    71    72   ar
    83    40    39    1
    84    37    36    1
    85   144   142    1
    86    73    75   ar
    87    72    74   ar
    88   114   113    2
    89   141   142    1
    90   141   138    1
    91    21    22    1
    92   137   138    1
    93   123   124    2
    94   123   122    1
    95    39    36    1
    96    39    41    1
    97    36    35    1
    98    49    50    1
    99   113   112    1
   100   113   121   am
   101   112   111    1
   102   112   115    1
   103   138   139    1
   104    75    76   ar
   105    74    76   ar
   106   122   121    1
   107   122   125    1
   108    23    22    2
   109    22    24   am
   110    50    53    1
   111    50    51    1
   112   115   116    1
   113   139   145   am
   114   139   140    2
   115   116   118   ar
   116   116   117   ar
   117    53    54    1
   118   118   120   ar
   119    24    25    1
   120   117   119   ar
   121   145   146    1
   122   125   126    1
   123   120   119   ar
   124   161   162   ar
   125   161   159   ar
   126    51    52    2
   127   164   162   ar
   128   164   166   ar
   129   127   126    2
   130   162   160   ar
   131   159   158   ar
   132   126   128   am
   133   166   165   ar
   134    54    55    1
   135    25    28    1
   136    25    26    1
   137   146   149    1
   138   146   147    1
   139    55    56    1
   140   149   150    1
   141    28    29    1
   142    29    30    1
   143   160   158   ar
   144   160   163   ar
   145    27    26    2
   146   158   157    1
   147    30    31    1
   148   165   163   ar
   149   147   153   am
   150   147   148    2
   151    56    57    1
   152    31    32    2
   153   150   151   ar
   154   150   152   ar
   155   153   154    1
   156   157   154    1
   157    32    33    1
   158    32    34    1
   159   154   155    1
   160   155   156    2
