@<TRIPOS>MOLECULE
tmp/3at4A00.pdb
 155 150 0 0 0
SMALL
GASTEIGER

@<TRIPOS>ATOM
      1  N        -32.0480  -15.2560  -26.3670 N.3    44  LEU44      -0.1231
      2  CA       -30.6490  -15.5810  -26.5920 C.3    44  LEU44       0.1693
      3  C        -30.1150  -16.3970  -25.4220 C.2    44  LEU44       0.2593
      4  O        -29.2530  -17.2580  -25.5940 O.2    44  LEU44      -0.2718
      5  CB       -29.8340  -14.2940  -26.7540 C.3    44  LEU44       0.0284
      6  CG       -30.2520  -13.4100  -27.9300 C.3    44  LEU44       0.0019
      7  CD1      -29.3920  -12.1540  -27.9650 C.3    44  LEU44       0.0001
      8  CD2      -30.1160  -14.1960  -29.2260 C.3    44  LEU44       0.0001
      9  N        -30.6420  -16.1210  -24.2350 N.am   45  GLY45      -0.1942
     10  CA       -30.2190  -16.8260  -23.0400 C.3    45  GLY45       0.2014
     11  C        -30.8820  -16.2090  -21.8260 C.2    45  GLY45       0.2638
     12  O        -31.4930  -15.1520  -21.9380 O.2    45  GLY45      -0.2714
     13  N        -30.7680  -16.8580  -20.6710 N.am   46  ARG46      -0.1977
     14  CA       -31.3820  -16.3400  -19.4510 C.3    46  ARG46       0.1597
     15  C        -30.5230  -16.6170  -18.2160 C.2    46  ARG46       0.2287
     16  O        -29.8440  -17.6380  -18.1380 O.2    46  ARG46      -0.2864
     17  CB       -32.7670  -16.9580  -19.2550 C.3    46  ARG46       0.0334
     18  CG       -32.7410  -18.4550  -19.0090 C.3    46  ARG46       0.0492
     19  CD       -34.1280  -18.9920  -18.7090 C.3    46  ARG46       0.2205
     20  NE       -34.1010  -20.4180  -18.3880 N.pl3  46  ARG46      -0.0865
     21  CZ       -33.4460  -20.9420  -17.3550 C.cat  46  ARG46       0.5346
     22  NH1      -33.4770  -22.2510  -17.1410 N.pl3  46  ARG46       0.1354
     23  NH2      -32.7590  -20.1590  -16.5330 N.pl3  46  ARG46       0.1354
     24  N        -32.1060  -12.6320  -21.8840 N.3    52  VAL52      -0.1245
     25  CA       -31.7050  -11.8310  -23.0280 C.3    52  VAL52       0.1561
     26  C        -32.2800  -12.3040  -24.3580 C.2    52  VAL52       0.2260
     27  O        -32.2830  -13.5010  -24.6520 O.2    52  VAL52      -0.2867
     28  CB       -30.1650  -11.7790  -23.1070 C.3    52  VAL52       0.0252
     29  CG1      -29.7200  -11.0080  -24.3290 C.3    52  VAL52       0.0019
     30  CG2      -29.6170  -11.1320  -21.8390 C.3    52  VAL52       0.0019
     31  N        -30.3820   -6.0550  -29.1780 N.3    65  VAL65      -0.1245
     32  CA       -30.4440   -7.0900  -28.1530 C.3    65  VAL65       0.1561
     33  C        -31.0200   -6.4600  -26.8900 C.2    65  VAL65       0.2260
     34  O        -30.5770   -5.3970  -26.4510 O.2    65  VAL65      -0.2867
     35  CB       -29.0590   -7.6900  -27.8450 C.3    65  VAL65       0.0252
     36  CG1      -29.1180   -8.4970  -26.5480 C.3    65  VAL65       0.0019
     37  CG2      -28.6330   -8.5980  -28.9850 C.3    65  VAL65       0.0019
     38  N        -31.9780   -6.8340  -22.8150 N.3    67  LYS67      -0.1245
     39  CA       -31.6680   -7.5170  -21.5760 C.3    67  LYS67       0.1561
     40  C        -32.7620   -7.1540  -20.5720 C.2    67  LYS67       0.2260
     41  O        -32.7430   -6.0710  -19.9790 O.2    67  LYS67      -0.2867
     42  CB       -30.3030   -7.0600  -21.0550 C.3    67  LYS67       0.0271
     43  CG       -29.8590   -7.7320  -19.7550 C.3    67  LYS67       0.0035
     44  CD       -28.5090   -7.1740  -19.3040 C.3    67  LYS67       0.0206
     45  CE       -27.9110   -7.9940  -18.1710 C.3    67  LYS67       0.1093
     46  NZ       -26.5050   -7.5950  -17.9070 N.3    67  LYS67      -0.1314
     47  N        -19.2510   -3.0270  -25.3400 N.3    94  ILE94      -0.1245
     48  CA       -20.5820   -3.1370  -25.9170 C.3    94  ILE94       0.1561
     49  C        -21.3260   -1.8100  -25.7110 C.2    94  ILE94       0.2260
     50  O        -21.2570   -1.1980  -24.6450 O.2    94  ILE94      -0.2867
     51  CB       -21.3820   -4.2870  -25.2710 C.3    94  ILE94       0.0252
     52  CG1      -22.5260   -4.7030  -26.2010 C.3    94  ILE94       0.0019
     53  CG2      -21.8940   -3.8600  -23.8850 C.3    94  ILE94       0.0019
     54  CD1      -23.5810   -3.6410  -26.4020 C.3    94  ILE94       0.0001
     55  N        -28.9700   -2.9900  -25.9980 N.3   112  PHE112     -0.1227
     56  CA       -27.6090   -2.9220  -26.5300 C.3   112  PHE112      0.1736
     57  C        -27.5440   -3.0960  -28.0360 C.2   112  PHE112      0.2595
     58  O        -28.5020   -3.5450  -28.6650 O.2   112  PHE112     -0.2718
     59  CB       -26.7630   -4.0540  -25.9400 C.3   112  PHE112      0.0547
     60  CG       -26.6740   -4.0430  -24.4490 C.ar  112  PHE112     -0.0202
     61  CD1      -25.6460   -3.3640  -23.8080 C.ar  112  PHE112     -0.0042
     62  CD2      -27.6110   -4.7300  -23.6830 C.ar  112  PHE112     -0.0042
     63  CE1      -25.5500   -3.3730  -22.4220 C.ar  112  PHE112     -0.0003
     64  CE2      -27.5210   -4.7450  -22.3010 C.ar  112  PHE112     -0.0003
     65  CZ       -26.4890   -4.0660  -21.6670 C.ar  112  PHE112     -0.0000
     66  N        -26.3830   -2.7680  -28.5980 N.am  113  GLU113     -0.1965
     67  CA       -26.1630   -2.9030  -30.0320 C.3   113  GLU113      0.1733
     68  C        -26.0570   -4.4090  -30.2420 C.2   113  GLU113      0.2616
     69  O        -25.6770   -5.1440  -29.3260 O.2   113  GLU113     -0.2715
     70  CB       -24.8300   -2.2920  -30.4320 C.3   113  GLU113      0.0429
     71  CG       -23.6460   -3.1350  -29.9840 C.3   113  GLU113      0.1163
     72  CD       -22.3140   -2.5040  -30.3260 C.2   113  GLU113      0.3649
     73  OE1      -22.0760   -2.2550  -31.5210 O.co2 113  GLU113     -0.2457
     74  OE2      -21.5090   -2.2590  -29.4040 O.co2 113  GLU113     -0.2457
     75  N        -26.3690   -4.8720  -31.4420 N.am  114  HIS114     -0.1959
     76  CA       -26.2940   -6.2950  -31.7240 C.3   114  HIS114      0.1787
     77  C        -25.0020   -6.6700  -32.4380 C.2   114  HIS114      0.2620
     78  O        -24.4650   -5.8930  -33.2260 O.2   114  HIS114     -0.2715
     79  CB       -27.5000   -6.7260  -32.5650 C.3   114  HIS114      0.0785
     80  CG       -27.4450   -8.1530  -33.0260 C.ar  114  HIS114      0.0821
     81  ND1      -26.8960   -8.5250  -34.2350 N.ar  114  HIS114     -0.2267
     82  CD2      -27.8640   -9.2970  -32.4350 C.ar  114  HIS114      0.1154
     83  CE1      -26.9820   -9.8370  -34.3710 C.ar  114  HIS114      0.1986
     84  NE2      -27.5660  -10.3300  -33.2910 N.ar  114  HIS114     -0.2212
     85  N        -24.5020   -7.8640  -32.1380 N.am  115  VAL115     -0.1977
     86  CA       -23.2790   -8.3770  -32.7410 C.3   115  VAL115      0.1596
     87  C        -23.6140   -9.7480  -33.3200 C.2   115  VAL115      0.2287
     88  O        -24.2480  -10.5720  -32.6460 O.2   115  VAL115     -0.2864
     89  CB       -22.1570   -8.5750  -31.7020 C.3   115  VAL115      0.0276
     90  CG1      -20.8920   -9.0640  -32.4020 C.3   115  VAL115      0.0022
     91  CG2      -21.8990   -7.2680  -30.9410 C.3   115  VAL115      0.0022
     92  N        -22.7920  -12.6980  -33.3720 N.3   117  ASN117     -0.1240
     93  CA       -21.9750  -13.6420  -32.6310 C.3   117  ASN117      0.1653
     94  C        -22.0440  -15.1020  -33.0620 C.2   117  ASN117      0.2266
     95  O        -23.0590  -15.5770  -33.5710 O.2   117  ASN117     -0.2867
     96  CB       -22.3300  -13.5500  -31.1410 C.3   117  ASN117      0.1155
     97  CG       -21.4840  -14.4670  -30.2840 C.2   117  ASN117      0.2627
     98  OD1      -20.2840  -14.2350  -30.1040 O.2   117  ASN117     -0.2716
     99  ND2      -22.0950  -15.5260  -29.7620 N.am  117  ASN117     -0.0877
    100  N        -18.3060  -16.3750  -22.4460 N.3   159  HIS159     -0.1226
    101  CA       -19.7180  -16.0110  -22.5760 C.3   159  HIS159      0.1752
    102  C        -19.9850  -14.5170  -22.6840 C.2   159  HIS159      0.2596
    103  O        -20.9390  -14.1030  -23.3480 O.2   159  HIS159     -0.2718
    104  CB       -20.5080  -16.5540  -21.3900 C.3   159  HIS159      0.0759
    105  CG       -20.8100  -18.0120  -21.4900 C.ar  159  HIS159      0.0818
    106  ND1      -21.1650  -18.7760  -20.3990 N.ar  159  HIS159     -0.2268
    107  CD2      -20.8190  -18.8480  -22.5550 C.ar  159  HIS159      0.1154
    108  CE1      -21.3780  -20.0200  -20.7880 C.ar  159  HIS159      0.1986
    109  NE2      -21.1750  -20.0910  -22.0920 N.ar  159  HIS159     -0.2212
    110  N        -19.1650  -13.7120  -22.0190 N.am  160  ASN160     -0.1974
    111  CA       -19.3470  -12.2710  -22.0650 C.3   160  ASN160      0.1688
    112  C        -18.4610  -11.6030  -23.1120 C.2   160  ASN160      0.2292
    113  O        -18.0900  -10.4350  -22.9920 O.2   160  ASN160     -0.2864
    114  CB       -19.1180  -11.6760  -20.6760 C.3   160  ASN160      0.1181
    115  CG       -20.1460  -12.1650  -19.6800 C.2   160  ASN160      0.2629
    116  OD1      -21.2240  -12.6070  -20.0710 O.2   160  ASN160     -0.2716
    117  ND2      -19.8280  -12.0820  -18.3920 N.am  160  ASN160     -0.0877
    118  N        -18.6710  -11.2600  -27.1410 N.3   162  MET162     -0.1245
    119  CA       -19.3670  -11.4400  -28.4080 C.3   162  MET162      0.1570
    120  C        -18.3930  -11.2430  -29.5790 C.2   162  MET162      0.2261
    121  O        -17.6680  -10.2400  -29.6440 O.2   162  MET162     -0.2867
    122  CB       -20.5290  -10.4530  -28.4880 C.3   162  MET162      0.0387
    123  CG       -21.6170  -10.7080  -27.4450 C.3   162  MET162      0.0595
    124  SD       -22.4440  -12.2950  -27.6870 S.3   162  MET162     -0.1393
    125  CE       -21.9780  -13.1800  -26.2040 C.3   162  MET162      0.0692
    126  N        -19.2680   -7.8690  -23.0540 N.3   173  ILE173     -0.1231
    127  CA       -20.5860   -7.6260  -22.4810 C.3   173  ILE173      0.1692
    128  C        -20.7690   -7.9980  -21.0130 C.2   173  ILE173      0.2592
    129  O        -19.8280   -8.4000  -20.3250 O.2   173  ILE173     -0.2718
    130  CB       -21.7010   -8.3430  -23.2790 C.3   173  ILE173      0.0266
    131  CG1      -21.5520   -9.8520  -23.1240 C.3   173  ILE173      0.0019
    132  CG2      -21.6440   -7.9320  -24.7500 C.3   173  ILE173      0.0020
    133  CD1      -22.7610  -10.6230  -23.5800 C.3   173  ILE173      0.0001
    134  N        -22.0220   -7.8730  -20.5830 N.am  174  ASP174     -0.1960
    135  CA       -22.4900   -8.1450  -19.2320 C.3   174  ASP174      0.1840
    136  C        -21.6280   -7.4880  -18.1740 C.2   174  ASP174      0.2622
    137  O        -20.6920   -8.0870  -17.6400 O.2   174  ASP174     -0.2715
    138  CB       -22.6100   -9.6410  -18.9430 C.3   174  ASP174      0.1450
    139  CG       -23.4540   -9.9140  -17.7060 C.2   174  ASP174      0.3671
    140  OD1      -23.8140  -11.0880  -17.4640 O.co2 174  ASP174     -0.2456
    141  OD2      -23.7580   -8.9440  -16.9730 O.co2 174  ASP174     -0.2456
    142  N        -21.9730   -6.2450  -17.8790 N.am  175  TRP175     -0.1974
    143  CA       -21.2690   -5.4570  -16.8920 C.3   175  TRP175      0.1640
    144  C        -22.0820   -5.4220  -15.6020 C.2   175  TRP175      0.2290
    145  O        -21.9620   -4.4970  -14.8030 O.2   175  TRP175     -0.2864
    146  CB       -21.0380   -4.0470  -17.4470 C.3   175  TRP175      0.0576
    147  CG       -20.2100   -4.0770  -18.6980 C.ar  175  TRP175      0.0006
    148  CD1      -20.6000   -4.5210  -19.9390 C.ar  175  TRP175      0.0946
    149  CD2      -18.8210   -3.7520  -18.8100 C.ar  175  TRP175      0.0152
    150  NE1      -19.5320   -4.4960  -20.8050 N.ar  175  TRP175     -0.2442
    151  CE2      -18.4300   -4.0290  -20.1400 C.ar  175  TRP175      0.0810
    152  CE3      -17.8660   -3.2580  -17.9150 C.ar  175  TRP175      0.0012
    153  CZ2      -17.1280   -3.8310  -20.5940 C.ar  175  TRP175      0.0191
    154  CZ3      -16.5730   -3.0650  -18.3660 C.ar  175  TRP175      0.0001
    155  CH2      -16.2160   -3.3520  -19.6960 C.ar  175  TRP175      0.0015
@<TRIPOS>BOND
     1    83    81   ar
     2    83    84   ar
     3    81    80   ar
     4    95    94    2
     5    92    93    1
     6    87    86    1
     7    87    88    2
     8    84    82   ar
     9    78    77    2
    10    94    93    1
    11    80    79    1
    12    80    82   ar
    13    86    85    1
    14    86    89    1
    15    93    96    1
    16    79    76    1
    17    77    85   am
    18    77    76    1
    19    90    89    1
    20    76    75    1
    21    89    91    1
    22    73    72   ar
    23    75    68   am
    24    96    97    1
    25    70    67    1
    26    70    71    1
    27    72    71    1
    28    72    74   ar
    29    97    98    2
    30    97    99   am
    31    68    67    1
    32    68    69    2
    33    67    66    1
    34   121   120    2
    35   120   119    1
    36     8     6    1
    37    31    32    1
    38    37    35    1
    39    58    57    2
    40    66    57   am
    41   122   119    1
    42   122   123    1
    43   119   118    1
    44    32    35    1
    45    32    33    1
    46    57    56    1
    47     7     6    1
    48     6     5    1
    49    35    36    1
    50   124   123    1
    51   124   125    1
    52    33    34    2
    53     5     2    1
    54     2     1    1
    55     2     3    1
    56    56    55    1
    57    56    59    1
    58    54    52    1
    59    52    51    1
    60    59    60    1
    61    48    49    1
    62    48    47    1
    63    48    51    1
    64    49    50    2
    65     4     3    2
    66     3     9   am
    67    51    53    1
    68   132   130    1
    69    27    26    2
    70    60    61   ar
    71    60    62   ar
    72    26    25    1
    73    29    28    1
    74     9    10    1
    75    61    63   ar
    76    62    64   ar
    77   133   131    1
    78   103   102    2
    79   130   131    1
    80   130   127    1
    81   112   113    2
    82   112   111    1
    83    28    25    1
    84    28    30    1
    85   126   127    1
    86    10    11    1
    87    25    24    1
    88    38    39    1
    89   102   101    1
    90   102   110   am
    91   101   100    1
    92   101   104    1
    93   107   109   ar
    94   107   105   ar
    95   127   128    1
    96    63    65   ar
    97    64    65   ar
    98   109   108   ar
    99   111   110    1
   100   111   114    1
   101    12    11    2
   102    11    13   am
   103    39    42    1
   104    39    40    1
   105   105   104    1
   106   105   106   ar
   107    42    43    1
   108   128   134   am
   109   128   129    2
   110   150   151   ar
   111   150   148   ar
   112   108   106   ar
   113   114   115    1
   114    13    14    1
   115   153   151   ar
   116   153   155   ar
   117   134   135    1
   118    40    41    2
   119   151   149   ar
   120   116   115    2
   121   148   147   ar
   122    43    44    1
   123   155   154   ar
   124   115   117   am
   125    14    17    1
   126    14    15    1
   127    44    45    1
   128    17    18    1
   129   135   138    1
   130   135   136    1
   131    18    19    1
   132   138   139    1
   133   149   147   ar
   134   149   152   ar
   135    19    20    1
   136   147   146    1
   137    20    21    2
   138   154   152   ar
   139    15    16    2
   140   136   142   am
   141   136   137    2
   142    45    46    1
   143   142   143    1
   144   139   140   ar
   145   139   141   ar
   146   146   143    1
   147    21    22    1
   148    21    23    1
   149   143   144    1
   150   144   145    2
