@<TRIPOS>MOLECULE
tmp/3at5A00.pdb
 218 208 0 0 0
SMALL
GASTEIGER

@<TRIPOS>ATOM
      1  N         23.5280   -1.8620   37.3770 N.3    32  LEU32      -0.1245
      2  CA        23.3020   -2.1510   35.9650 C.3    32  LEU32       0.1561
      3  C         24.6530   -2.4680   35.3110 C.2    32  LEU32       0.2260
      4  O         24.8290   -3.5280   34.7070 O.2    32  LEU32      -0.2867
      5  CB        22.6640   -0.9410   35.2680 C.3    32  LEU32       0.0270
      6  CG        22.2770   -1.0910   33.7960 C.3    32  LEU32       0.0019
      7  CD1       21.1380   -2.0890   33.6640 C.3    32  LEU32       0.0001
      8  CD2       21.8520    0.2790   33.2290 C.3    32  LEU32       0.0001
      9  N         26.0610   -3.2660   29.2490 N.3    39  THR39      -0.1218
     10  CA        25.3980   -1.9850   29.4290 C.3    39  THR39       0.1862
     11  C         26.3570   -0.7940   29.4290 C.2    39  THR39       0.2287
     12  O         25.9700    0.3200   29.0900 O.2    39  THR39      -0.2866
     13  CB        24.5760   -1.9870   30.7480 C.3    39  THR39       0.1770
     14  OG1       23.4000   -2.7910   30.5680 O.3    39  THR39      -0.2211
     15  CG2       24.1620   -0.5870   31.1250 C.3    39  THR39       0.0375
     16  N         27.0530    1.6470   26.3210 N.3    42  TYR42      -0.1227
     17  CA        26.1400    2.7370   25.9830 C.3    42  TYR42       0.1736
     18  C         26.6340    4.0540   26.5880 C.2    42  TYR42       0.2595
     19  O         26.1120    5.1180   26.2690 O.2    42  TYR42      -0.2718
     20  CB        24.7320    2.4360   26.5170 C.3    42  TYR42       0.0548
     21  CG        23.9500    1.4310   25.6990 C.ar   42  TYR42      -0.0200
     22  CD1       23.0640    1.8530   24.7130 C.ar   42  TYR42      -0.0009
     23  CD2       24.1150    0.0570   25.8920 C.ar   42  TYR42      -0.0009
     24  CE1       22.3540    0.9350   23.9320 C.ar   42  TYR42       0.0417
     25  CE2       23.4120   -0.8720   25.1100 C.ar   42  TYR42       0.0417
     26  CZ        22.5350   -0.4200   24.1350 C.ar   42  TYR42       0.1957
     27  OH        21.8420   -1.3090   23.3490 O.3    42  TYR42      -0.2866
     28  N         27.6410    3.9850   27.4590 N.am   43  PHE43      -0.1976
     29  CA        28.1650    5.1870   28.1160 C.3    43  PHE43       0.1639
     30  C         29.6910    5.3000   28.0070 C.2    43  PHE43       0.2290
     31  O         30.3890    5.3850   29.0130 O.2    43  PHE43      -0.2864
     32  CB        27.7450    5.1730   29.5930 C.3    43  PHE43       0.0560
     33  CG        26.2580    4.9980   29.8010 C.ar   43  PHE43      -0.0200
     34  CD1       25.4330    6.0980   30.0040 C.ar   43  PHE43      -0.0042
     35  CD2       25.6810    3.7270   29.7600 C.ar   43  PHE43      -0.0042
     36  CE1       24.0490    5.9400   30.1630 C.ar   43  PHE43      -0.0003
     37  CE2       24.3030    3.5560   29.9170 C.ar   43  PHE43      -0.0003
     38  CZ        23.4840    4.6670   30.1190 C.ar   43  PHE43      -0.0000
     39  N         31.5530    7.7700   27.1770 N.3    45  HIS45      -0.1226
     40  CA        32.0770    9.0560   27.6140 C.3    45  HIS45       0.1752
     41  C         31.8520    9.2850   29.0990 C.2    45  HIS45       0.2596
     42  O         31.9410   10.4060   29.5950 O.2    45  HIS45      -0.2718
     43  CB        31.4220   10.1490   26.7790 C.3    45  HIS45       0.0759
     44  CG        31.5010    9.8820   25.3100 C.ar   45  HIS45       0.0818
     45  ND1       30.3890    9.8540   24.4960 N.ar   45  HIS45      -0.2268
     46  CD2       32.5510    9.5440   24.5250 C.ar   45  HIS45       0.1154
     47  CE1       30.7500    9.5050   23.2730 C.ar   45  HIS45       0.1986
     48  NE2       32.0560    9.3110   23.2640 N.ar   45  HIS45      -0.2212
     49  N         31.5740    8.1960   29.8010 N.am   46  PHE46      -0.1976
     50  CA        31.3360    8.2270   31.2350 C.3    46  PHE46       0.1639
     51  C         32.4640    7.5410   31.9930 C.2    46  PHE46       0.2290
     52  O         32.9650    6.4950   31.5730 O.2    46  PHE46      -0.2864
     53  CB        30.0310    7.4930   31.5660 C.3    46  PHE46       0.0560
     54  CG        28.8160    8.3710   31.6020 C.ar   46  PHE46      -0.0200
     55  CD1       28.6390    9.3910   30.6730 C.ar   46  PHE46      -0.0042
     56  CD2       27.8220    8.1480   32.5500 C.ar   46  PHE46      -0.0042
     57  CE1       27.4920   10.1730   30.6860 C.ar   46  PHE46      -0.0003
     58  CE2       26.6700    8.9260   32.5700 C.ar   46  PHE46      -0.0003
     59  CZ        26.5050    9.9400   31.6350 C.ar   46  PHE46      -0.0000
     60  N         24.0370   11.3810   36.2320 N.3    58  HIS58      -0.1241
     61  CA        23.1230   10.6740   35.3570 C.3    58  HIS58       0.1621
     62  C         22.0900    9.8600   36.1270 C.2    58  HIS58       0.2264
     63  O         20.9180    9.8120   35.7490 O.2    58  HIS58      -0.2867
     64  CB        23.8790    9.7560   34.4110 C.3    58  HIS58       0.0745
     65  CG        23.0050    9.1690   33.3520 C.ar   58  HIS58       0.0817
     66  ND1       22.3440    9.9490   32.4290 N.ar   58  HIS58      -0.2268
     67  CD2       22.6230    7.8920   33.1110 C.ar   58  HIS58       0.1154
     68  CE1       21.5890    9.1790   31.6680 C.ar   58  HIS58       0.1986
     69  NE2       21.7390    7.9270   32.0590 N.ar   58  HIS58      -0.2212
     70  N         19.3210   12.0960   37.1470 N.3    61  LYS61      -0.1231
     71  CA        18.4440   12.4450   36.0270 C.3    61  LYS61       0.1693
     72  C         17.4580   11.3260   35.6970 C.2    61  LYS61       0.2591
     73  O         16.2660   11.5720   35.4780 O.2    61  LYS61      -0.2718
     74  CB        19.2700   12.7570   34.7760 C.3    61  LYS61       0.0285
     75  CG        20.1400   13.9960   34.8850 C.3    61  LYS61       0.0035
     76  CD        20.8190   14.2990   33.5590 C.3    61  LYS61       0.0206
     77  CE        21.6340   15.5860   33.6380 C.3    61  LYS61       0.1093
     78  NZ        22.2310   15.9520   32.3220 N.3    61  LYS61      -0.1314
     79  N         17.9590   10.0960   35.6600 N.am   62  VAL62      -0.1980
     80  CA        17.1140    8.9600   35.3450 C.3    62  VAL62       0.1595
     81  C         16.0180    8.7580   36.3780 C.2    62  VAL62       0.2287
     82  O         14.8410    8.6240   36.0350 O.2    62  VAL62      -0.2864
     83  CB        17.9460    7.6700   35.2310 C.3    62  VAL62       0.0276
     84  CG1       17.0320    6.4840   34.9770 C.3    62  VAL62       0.0022
     85  CG2       18.9600    7.8130   34.0980 C.3    62  VAL62       0.0022
     86  N         13.4470   11.4190   36.2540 N.3    65  ALA65      -0.1231
     87  CA        12.4880   11.2670   35.1610 C.3    65  ALA65       0.1694
     88  C         11.4160   10.2780   35.5900 C.2    65  ALA65       0.2591
     89  O         10.2480   10.4190   35.2300 O.2    65  ALA65      -0.2718
     90  CB        13.1880   10.7720   33.8930 C.3    65  ALA65       0.0304
     91  N         11.8150    9.2710   36.3600 N.am   66  ILE66      -0.1980
     92  CA        10.8650    8.2840   36.8400 C.3    66  ILE66       0.1595
     93  C          9.9210    8.9960   37.8030 C.2    66  ILE66       0.2287
     94  O          8.7210    8.7220   37.8290 O.2    66  ILE66      -0.2864
     95  CB        11.5960    7.0980   37.5290 C.3    66  ILE66       0.0276
     96  CG1       12.3380    6.2750   36.4640 C.3    66  ILE66       0.0022
     97  CG2       10.6010    6.2200   38.2760 C.3    66  ILE66       0.0022
     98  CD1       13.0910    5.0600   36.9960 C.3    66  ILE66       0.0001
     99  N          6.9340   11.5810   29.6420 N.3    80  LEU80      -0.1245
    100  CA         8.2610   11.1590   29.2020 C.3    80  LEU80       0.1561
    101  C          8.3930   11.1190   27.6800 C.2    80  LEU80       0.2260
    102  O          9.2820   10.4580   27.1400 O.2    80  LEU80      -0.2867
    103  CB         8.5770    9.7700   29.7660 C.3    80  LEU80       0.0270
    104  CG         8.4480    9.5600   31.2720 C.3    80  LEU80       0.0019
    105  CD1        8.8560    8.1360   31.6250 C.3    80  LEU80       0.0001
    106  CD2        9.3220   10.5560   31.9980 C.3    80  LEU80       0.0001
    107  N          9.4240   13.3720   25.7490 N.3    82  LYS82      -0.1231
    108  CA        10.6760   14.0000   25.3420 C.3    82  LYS82       0.1693
    109  C         11.8810   13.0660   25.3920 C.2    82  LYS82       0.2591
    110  O         12.9470   13.4040   24.8790 O.2    82  LYS82      -0.2718
    111  CB        10.9680   15.2210   26.2170 C.3    82  LYS82       0.0285
    112  CG        11.1350   14.8980   27.6940 C.3    82  LYS82       0.0035
    113  CD        12.0550   15.8960   28.3890 C.3    82  LYS82       0.0206
    114  CE        13.5260   15.6310   28.0700 C.3    82  LYS82       0.1093
    115  NZ        13.8540   15.7180   26.6150 N.3    82  LYS82      -0.1314
    116  N         11.7120   11.8990   26.0100 N.am   83  LEU83      -0.1980
    117  CA        12.7970   10.9270   26.1360 C.3    83  LEU83       0.1596
    118  C         12.6040    9.7540   25.1860 C.2    83  LEU83       0.2287
    119  O         13.5260    8.9670   24.9580 O.2    83  LEU83      -0.2864
    120  CB        12.8560   10.3810   27.5640 C.3    83  LEU83       0.0297
    121  CG        13.0030   11.3480   28.7370 C.3    83  LEU83       0.0022
    122  CD1       12.7700   10.5690   30.0170 C.3    83  LEU83       0.0001
    123  CD2       14.3850   12.0050   28.7410 C.3    83  LEU83       0.0001
    124  N         14.5460   10.2240   21.7910 N.3    86  LEU86      -0.1231
    125  CA        15.9500   10.2270   22.1640 C.3    86  LEU86       0.1693
    126  C         16.5000    8.8060   22.3320 C.2    86  LEU86       0.2592
    127  O         17.5420    8.4710   21.7790 O.2    86  LEU86      -0.2718
    128  CB        16.1470   11.0070   23.4640 C.3    86  LEU86       0.0284
    129  CG        17.5870   11.0490   23.9690 C.3    86  LEU86       0.0019
    130  CD1       18.4190   11.9520   23.0730 C.3    86  LEU86       0.0001
    131  CD2       17.6030   11.5550   25.3960 C.3    86  LEU86       0.0001
    132  N         15.7980    7.9730   23.0950 N.am   87  HIS87      -0.1976
    133  CA        16.2550    6.6070   23.3300 C.3    87  HIS87       0.1656
    134  C         16.1030    5.6390   22.1570 C.2    87  HIS87       0.2291
    135  O         17.0400    4.9150   21.8250 O.2    87  HIS87      -0.2864
    136  CB        15.5630    6.0190   24.5650 C.3    87  HIS87       0.0771
    137  CG        16.0620    6.5860   25.8560 C.ar   87  HIS87       0.0820
    138  ND1       15.6900    7.8320   26.3140 N.ar   87  HIS87      -0.2267
    139  CD2       16.9450    6.1000   26.7600 C.ar   87  HIS87       0.1154
    140  CE1       16.3240    8.0890   27.4450 C.ar   87  HIS87       0.1986
    141  NE2       17.0940    7.0550   27.7380 N.ar   87  HIS87      -0.2212
    142  N         19.4410    7.2760   20.0110 N.3    91  LEU91      -0.1245
    143  CA        20.4060    6.3790   20.6340 C.3    91  LEU91       0.1561
    144  C         20.2660    4.9310   20.1860 C.2    91  LEU91       0.2260
    145  O         21.2320    4.1810   20.2090 O.2    91  LEU91      -0.2867
    146  CB        20.3000    6.4550   22.1520 C.3    91  LEU91       0.0270
    147  CG        20.8640    7.7220   22.7890 C.3    91  LEU91       0.0019
    148  CD1       20.4450    7.7830   24.2440 C.3    91  LEU91       0.0001
    149  CD2       22.3750    7.7380   22.6560 C.3    91  LEU91       0.0001
    150  N         18.6880    2.4380   21.6270 N.3    93  VAL93      -0.1245
    151  CA        18.9270    1.5430   22.7460 C.3    93  VAL93       0.1561
    152  C         18.2020    0.2220   22.4750 C.2    93  VAL93       0.2260
    153  O         17.0500    0.2200   22.0400 O.2    93  VAL93      -0.2867
    154  CB        18.4020    2.1720   24.0610 C.3    93  VAL93       0.0252
    155  CG1       18.5270    1.1820   25.2090 C.3    93  VAL93       0.0019
    156  CG2       19.1860    3.4500   24.3650 C.3    93  VAL93       0.0019
    157  N         17.5600   -3.7780   27.3500 N.3    97  ASN97      -0.1225
    158  CA        18.1730   -3.0120   28.4340 C.3    97  ASN97       0.1785
    159  C         17.1870   -2.3570   29.4100 C.2    97  ASN97       0.2597
    160  O         17.5140   -2.1410   30.5710 O.2    97  ASN97      -0.2718
    161  CB        19.1060   -1.9410   27.8560 C.3    97  ASN97       0.1169
    162  CG        20.2890   -2.5370   27.1160 C.2    97  ASN97       0.2627
    163  OD1       20.4080   -2.4120   25.9000 O.2    97  ASN97      -0.2716
    164  ND2       21.1670   -3.1950   27.8510 N.am   97  ASN97      -0.0877
    165  N         15.9820   -2.0390   28.9590 N.am   98  PHE98      -0.1976
    166  CA        15.0320   -1.4140   29.8770 C.3    98  PHE98       0.1639
    167  C         14.6250   -2.3780   30.9850 C.2    98  PHE98       0.2290
    168  O         14.3660   -1.9520   32.1070 O.2    98  PHE98      -0.2864
    169  CB        13.8230   -0.8910   29.0970 C.3    98  PHE98       0.0560
    170  CG        14.1760    0.2430   28.1740 C.ar   98  PHE98      -0.0200
    171  CD1       14.2550    1.5470   28.6550 C.ar   98  PHE98      -0.0042
    172  CD2       14.5500   -0.0050   26.8600 C.ar   98  PHE98      -0.0042
    173  CE1       14.7110    2.5870   27.8440 C.ar   98  PHE98      -0.0003
    174  CE2       15.0090    1.0280   26.0450 C.ar   98  PHE98      -0.0003
    175  CZ        15.0890    2.3250   26.5420 C.ar   98  PHE98      -0.0000
    176  N         17.4390   -2.4260   33.5560 N.3   101  LEU101     -0.1231
    177  CA        17.4360   -1.2410   34.4060 C.3   101  LEU101      0.1693
    178  C         16.2860   -1.3180   35.4070 C.2   101  LEU101      0.2592
    179  O         16.4610   -0.9780   36.5700 O.2   101  LEU101     -0.2718
    180  CB        17.3160    0.0350   33.5660 C.3   101  LEU101      0.0284
    181  CG        17.4490    1.3410   34.3650 C.3   101  LEU101      0.0019
    182  CD1       18.8910    1.5430   34.7850 C.3   101  LEU101      0.0001
    183  CD2       17.0010    2.5110   33.5240 C.3   101  LEU101      0.0001
    184  N         15.1130   -1.7660   34.9610 N.am  102  SER102     -0.1952
    185  CA        13.9760   -1.8840   35.8720 C.3   102  SER102      0.1924
    186  C         14.3430   -2.8600   36.9790 C.2   102  SER102      0.2314
    187  O         14.1380   -2.5780   38.1590 O.2   102  SER102     -0.2863
    188  CB        12.7240   -2.3730   35.1370 C.3   102  SER102      0.2116
    189  OG        12.3060   -1.4070   34.1840 O.3   102  SER102     -0.2180
    190  N          7.2160    0.1520   36.0210 N.3   129  LEU129     -0.1245
    191  CA         8.4730    0.2270   35.2840 C.3   129  LEU129      0.1561
    192  C          8.2780   -0.2990   33.8660 C.2   129  LEU129      0.2260
    193  O          8.9410    0.1500   32.9340 O.2   129  LEU129     -0.2867
    194  CB         9.5600   -0.5570   36.0180 C.3   129  LEU129      0.0270
    195  CG         9.9430    0.0810   37.3640 C.3   129  LEU129      0.0019
    196  CD1       10.8360   -0.8510   38.1630 C.3   129  LEU129      0.0001
    197  CD2       10.6370    1.4170   37.1130 C.3   129  LEU129      0.0001
    198  N          6.4750    2.5300   32.0160 N.3   132  VAL132     -0.1231
    199  CA         7.4160    3.6210   31.8170 C.3   132  VAL132      0.1692
    200  C          8.3590    3.3020   30.6680 C.2   132  VAL132      0.2592
    201  O          8.5630    4.1310   29.7800 O.2   132  VAL132     -0.2718
    202  CB         8.2450    3.9050   33.0900 C.3   132  VAL132      0.0266
    203  CG1        9.4910    4.7240   32.7430 C.3   132  VAL132      0.0020
    204  CG2        7.3980    4.6790   34.0880 C.3   132  VAL132      0.0020
    205  N          8.9290    2.1030   30.6620 N.am  133  SER133     -0.1952
    206  CA         9.8440    1.7620   29.5840 C.3   133  SER133      0.1924
    207  C          9.1270    1.5110   28.2570 C.2   133  SER133      0.2314
    208  O          9.7390    1.6080   27.1950 O.2   133  SER133     -0.2863
    209  CB        10.7410    0.5750   29.9760 C.3   133  SER133      0.2116
    210  OG        10.0030   -0.5220   30.4550 O.3   133  SER133     -0.2180
    211  N          9.3010    4.6030   26.4210 N.3   136  LEU136     -0.1245
    212  CA        10.6040    4.8870   25.8540 C.3   136  LEU136      0.1561
    213  C         10.9770    3.9660   24.7000 C.2   136  LEU136      0.2260
    214  O         11.9660    4.2050   24.0070 O.2   136  LEU136     -0.2867
    215  CB        11.6670    4.8420   26.9540 C.3   136  LEU136      0.0270
    216  CG        11.4410    5.8570   28.0810 C.3   136  LEU136      0.0019
    217  CD1       12.6270    5.8400   29.0150 C.3   136  LEU136      0.0001
    218  CD2       11.2540    7.2490   27.5140 C.3   136  LEU136      0.0001
@<TRIPOS>BOND
     1   142   143    1
     2   144   145    2
     3   144   143    1
     4   143   146    1
     5   150   151    1
     6   127   126    2
     7   124   125    1
     8   135   134    2
     9   153   152    2
    10   146   147    1
    11   134   133    1
    12   125   126    1
    13   125   128    1
    14   126   132   am
    15   152   151    1
    16   149   147    1
    17   151   154    1
    18   147   148    1
    19   130   129    1
    20   132   133    1
    21    48    47   ar
    22    48    46   ar
    23    47    45   ar
    24   133   136    1
    25    27    26    1
    26   128   129    1
    27    24    26   ar
    28    24    22   ar
    29   129   131    1
    30   214   213    2
    31   154   156    1
    32   154   155    1
    33    26    25   ar
    34    45    44   ar
    35    46    44   ar
    36   136   137    1
    37   213   212    1
    38    22    21   ar
    39   110   109    2
    40   119   118    2
    41    25    23   ar
    42   118   117    1
    43    44    43    1
    44   108   109    1
    45   108   107    1
    46   108   111    1
    47   109   116   am
    48    21    23   ar
    49    21    20    1
    50   212   211    1
    51   212   215    1
    52   137   138   ar
    53   137   139   ar
    54   163   162    2
    55    17    16    1
    56    17    20    1
    57    17    18    1
    58   116   117    1
    59   174   175   ar
    60   174   172   ar
    61   117   120    1
    62   111   112    1
    63    19    18    2
    64   138   140   ar
    65   175   173   ar
    66    18    28   am
    67   115   114    1
    68   139   141   ar
    69    43    40    1
    70   172   170   ar
    71   215   216    1
    72   162   164   am
    73   162   161    1
    74   102   101    2
    75    39    40    1
    76   208   207    2
    77   157   158    1
    78   140   141   ar
    79    28    29    1
    80   218   216    1
    81   120   121    1
    82    40    41    1
    83   101   100    1
    84   112   113    1
    85   173   171   ar
    86   161   158    1
    87    30    29    1
    88    30    31    2
    89   114   113    1
    90   216   217    1
    91    29    32    1
    92   170   171   ar
    93   170   169    1
    94   207   206    1
    95   158   159    1
    96   121   123    1
    97   121   122    1
    98   165   159   am
    99   165   166    1
   100    12    11    2
   101   169   166    1
   102    41    42    2
   103    41    49   am
   104   100    99    1
   105   100   103    1
   106     9    10    1
   107   159   160    2
   108    11    10    1
   109    10    13    1
   110   206   209    1
   111   206   205    1
   112    32    33    1
   113    35    33   ar
   114    35    37   ar
   115   103   104    1
   116   201   200    2
   117    49    50    1
   118    33    34   ar
   119   166   167    1
   120    37    38   ar
   121   209   210    1
   122    34    36   ar
   123    38    36   ar
   124    14    13    1
   125   205   200   am
   126   200   199    1
   127    55    57   ar
   128    55    54   ar
   129    57    59   ar
   130    13    15    1
   131   167   168    2
   132    50    53    1
   133    50    51    1
   134   104   105    1
   135   104   106    1
   136    53    54    1
   137    52    51    2
   138    54    56   ar
   139    59    58   ar
   140    68    69   ar
   141    68    66   ar
   142   199   198    1
   143   199   202    1
   144    69    67   ar
   145    78    77    1
   146    66    65   ar
   147    56    58   ar
   148   203   202    1
   149   193   192    2
   150   202   204    1
   151    67    65   ar
   152     8     6    1
   153    65    64    1
   154   183   181    1
   155   176   177    1
   156    76    77    1
   157    76    75    1
   158   180   181    1
   159   180   177    1
   160     7     6    1
   161     6     5    1
   162   192   191    1
   163    90    87    1
   164    85    83    1
   165   189   188    1
   166   181   182    1
   167   177   178    1
   168    64    61    1
   169     4     3    2
   170    74    75    1
   171    74    71    1
   172   184   178   am
   173   184   185    1
   174    84    83    1
   175   188   185    1
   176    87    88    1
   177    87    86    1
   178    89    88    2
   179    83    80    1
   180     5     2    1
   181   191   194    1
   182   191   190    1
   183     3     2    1
   184    80    79    1
   185    80    81    1
   186    61    62    1
   187    61    60    1
   188   178   179    2
   189    73    72    2
   190    88    91   am
   191    79    72   am
   192    72    71    1
   193    63    62    2
   194   185   186    1
   195     2     1    1
   196   194   195    1
   197    71    70    1
   198    82    81    2
   199    91    92    1
   200    96    98    1
   201    96    95    1
   202    92    95    1
   203    92    93    1
   204   186   187    2
   205   197   195    1
   206   195   196    1
   207    95    97    1
   208    93    94    2
