@<TRIPOS>MOLECULE
tmp/3at5B00.pdb
 204 195 0 0 0
SMALL
GASTEIGER

@<TRIPOS>ATOM
      1  N          9.5990  -18.5640   45.7690 N.3    28  LEU28      -0.1245
      2  CA         8.5690  -19.2790   45.0240 C.3    28  LEU28       0.1561
      3  C          7.2420  -18.5080   45.0760 C.2    28  LEU28       0.2260
      4  O          6.5280  -18.4010   44.0740 O.2    28  LEU28      -0.2867
      5  CB         8.3770  -20.6930   45.5760 C.3    28  LEU28       0.0270
      6  CG         7.4670  -21.5230   44.6660 C.3    28  LEU28       0.0019
      7  CD1        8.1700  -21.7250   43.3280 C.3    28  LEU28       0.0001
      8  CD2        7.1340  -22.8600   45.3090 C.3    28  LEU28       0.0001
      9  N          7.3680  -15.5360   42.7960 N.3    31  LEU31      -0.1245
     10  CA         7.3090  -15.9750   41.4110 C.3    31  LEU31       0.1561
     11  C          5.8370  -16.1610   41.0470 C.2    31  LEU31       0.2260
     12  O          5.3640  -15.6620   40.0270 O.2    31  LEU31      -0.2867
     13  CB         8.0270  -17.3060   41.2390 C.3    31  LEU31       0.0270
     14  CG         7.8650  -17.9290   39.8500 C.3    31  LEU31       0.0019
     15  CD1        8.6590  -17.1170   38.8350 C.3    31  LEU31       0.0001
     16  CD2        8.3480  -19.3700   39.8780 C.3    31  LEU31       0.0001
     17  N          2.6490  -18.4570   36.0380 N.3    38  THR38      -0.1218
     18  CA         3.4400  -19.6050   36.4620 C.3    38  THR38       0.1862
     19  C          2.6080  -20.5360   37.3480 C.2    38  THR38       0.2287
     20  O          2.9520  -21.7030   37.5230 O.2    38  THR38      -0.2866
     21  CB         4.7400  -19.1770   37.2100 C.3    38  THR38       0.1770
     22  OG1        4.4070  -18.4580   38.3980 O.3    38  THR38      -0.2211
     23  CG2        5.6010  -18.2820   36.3210 C.3    38  THR38       0.0375
     24  N          1.5070  -24.2790   36.5530 N.3    41  PHE41      -0.1227
     25  CA         2.3510  -25.4620   36.7610 C.3    41  PHE41       0.1736
     26  C          2.2180  -26.0730   38.1530 C.2    41  PHE41       0.2595
     27  O          2.7160  -27.1720   38.4030 O.2    41  PHE41      -0.2718
     28  CB         3.8330  -25.1030   36.5400 C.3    41  PHE41       0.0547
     29  CG         4.1710  -24.7350   35.1210 C.ar   41  PHE41      -0.0202
     30  CD1        4.1900  -25.6990   34.1230 C.ar   41  PHE41      -0.0042
     31  CD2        4.4610  -23.4170   34.7840 C.ar   41  PHE41      -0.0042
     32  CE1        4.4930  -25.3560   32.8000 C.ar   41  PHE41      -0.0003
     33  CE2        4.7650  -23.0620   33.4660 C.ar   41  PHE41      -0.0003
     34  CZ         4.7810  -24.0350   32.4750 C.ar   41  PHE41      -0.0000
     35  N          1.5460  -25.3670   39.0550 N.am   42  PHE42      -0.1976
     36  CA         1.4070  -25.8270   40.4360 C.3    42  PHE42       0.1639
     37  C         -0.0340  -26.0040   40.9250 C.2    42  PHE42       0.2290
     38  O         -0.3600  -25.6360   42.0550 O.2    42  PHE42      -0.2864
     39  CB         2.1310  -24.8380   41.3530 C.3    42  PHE42       0.0560
     40  CG         3.5520  -24.5670   40.9480 C.ar   42  PHE42      -0.0200
     41  CD1        4.5770  -25.4270   41.3330 C.ar   42  PHE42      -0.0042
     42  CD2        3.8650  -23.4590   40.1670 C.ar   42  PHE42      -0.0042
     43  CE1        5.8970  -25.1830   40.9440 C.ar   42  PHE42      -0.0003
     44  CE2        5.1820  -23.2070   39.7730 C.ar   42  PHE42      -0.0003
     45  CZ         6.1980  -24.0690   40.1620 C.ar   42  PHE42      -0.0000
     46  N         -1.5860  -28.5270   41.9770 N.3    44  SER44      -0.1202
     47  CA        -1.6320  -29.3600   43.1700 C.3    44  SER44       0.2020
     48  C         -1.2890  -28.6570   44.4760 C.2    44  SER44       0.2618
     49  O         -1.3560  -29.2690   45.5390 O.2    44  SER44      -0.2717
     50  CB        -0.7050  -30.5610   42.9890 C.3    44  SER44       0.2103
     51  OG         0.6350  -30.1370   42.7970 O.3    44  SER44      -0.2182
     52  N         -0.9260  -27.3810   44.4130 N.am   45  PHE45      -0.1975
     53  CA        -0.5760  -26.6520   45.6260 C.3    45  PHE45       0.1639
     54  C         -1.7930  -26.1060   46.3520 C.2    45  PHE45       0.2290
     55  O         -1.6840  -25.5540   47.4530 O.2    45  PHE45      -0.2864
     56  CB         0.4140  -25.5280   45.3030 C.3    45  PHE45       0.0560
     57  CG         1.8150  -26.0180   45.0420 C.ar   45  PHE45      -0.0200
     58  CD1        2.0640  -27.3710   44.8120 C.ar   45  PHE45      -0.0042
     59  CD2        2.8830  -25.1320   45.0240 C.ar   45  PHE45      -0.0042
     60  CE1        3.3530  -27.8300   44.5690 C.ar   45  PHE45      -0.0003
     61  CE2        4.1780  -25.5840   44.7810 C.ar   45  PHE45      -0.0003
     62  CZ         4.4110  -26.9350   44.5530 C.ar   45  PHE45      -0.0000
     63  N          8.0100  -26.6710   48.6380 N.3    63  HIS63      -0.1241
     64  CA         8.5930  -26.7560   47.3080 C.3    63  HIS63       0.1621
     65  C          9.7010  -25.7140   47.1470 C.2    63  HIS63       0.2264
     66  O         10.7350  -25.9840   46.5420 O.2    63  HIS63      -0.2867
     67  CB         7.5390  -26.5360   46.2340 C.3    63  HIS63       0.0745
     68  CG         8.0770  -26.6550   44.8430 C.ar   63  HIS63       0.0817
     69  ND1        8.4490  -27.8610   44.2920 N.ar   63  HIS63      -0.2268
     70  CD2        8.3470  -25.7140   43.9070 C.ar   63  HIS63       0.1154
     71  CE1        8.9250  -27.6610   43.0770 C.ar   63  HIS63       0.1986
     72  NE2        8.8760  -26.3660   42.8190 N.ar   63  HIS63      -0.2212
     73  N         12.9030  -26.9360   48.4540 N.3    66  LYS66      -0.1231
     74  CA        13.5700  -27.8530   47.5390 C.3    66  LYS66       0.1693
     75  C         14.2530  -27.1110   46.3920 C.2    66  LYS66       0.2591
     76  O         15.3150  -27.5260   45.9180 O.2    66  LYS66      -0.2718
     77  CB        12.5640  -28.8630   46.9890 C.3    66  LYS66       0.0285
     78  CG        12.2000  -29.9610   47.9760 C.3    66  LYS66       0.0035
     79  CD        11.0900  -30.8430   47.4260 C.3    66  LYS66       0.0206
     80  CE        10.9830  -32.1560   48.1910 C.3    66  LYS66       0.1093
     81  NZ        12.1770  -33.0390   47.9820 N.3    66  LYS66      -0.1314
     82  N         13.6450  -26.0140   45.9460 N.am   67  VAL67      -0.1980
     83  CA        14.2170  -25.2220   44.8650 C.3    67  VAL67       0.1595
     84  C         15.5480  -24.6340   45.3110 C.2    67  VAL67       0.2287
     85  O         16.5590  -24.7570   44.6120 O.2    67  VAL67      -0.2864
     86  CB        13.2770  -24.0830   44.4530 C.3    67  VAL67       0.0276
     87  CG1       13.9880  -23.1400   43.4790 C.3    67  VAL67       0.0022
     88  CG2       12.0290  -24.6580   43.8130 C.3    67  VAL67       0.0022
     89  N         18.2930  -27.0260   45.7290 N.3    70  SER70      -0.1202
     90  CA        18.8170  -27.3500   44.4110 C.3    70  SER70       0.2020
     91  C         19.8750  -26.3100   44.0220 C.2    70  SER70       0.2618
     92  O         20.9500  -26.6660   43.5380 O.2    70  SER70      -0.2717
     93  CB        17.6760  -27.3700   43.3930 C.3    70  SER70       0.2103
     94  OG        18.0960  -27.9030   42.1540 O.3    70  SER70      -0.2182
     95  N         19.5820  -25.0280   44.2340 N.am   71  PHE71      -0.1975
     96  CA        20.5650  -23.9930   43.9130 C.3    71  PHE71       0.1639
     97  C         21.8150  -24.2810   44.7400 C.2    71  PHE71       0.2290
     98  O         22.9350  -23.9590   44.3360 O.2    71  PHE71      -0.2864
     99  CB        20.0500  -22.5860   44.2580 C.3    71  PHE71       0.0560
    100  CG        19.3220  -21.9060   43.1290 C.ar   71  PHE71      -0.0200
    101  CD1       17.9320  -21.8690   43.0970 C.ar   71  PHE71      -0.0042
    102  CD2       20.0300  -21.3300   42.0810 C.ar   71  PHE71      -0.0042
    103  CE1       17.2580  -21.2710   42.0350 C.ar   71  PHE71      -0.0003
    104  CE2       19.3720  -20.7320   41.0170 C.ar   71  PHE71      -0.0003
    105  CZ        17.9790  -20.7010   40.9900 C.ar   71  PHE71      -0.0000
    106  N         22.3280  -30.2960   36.7210 N.3    85  PHE85      -0.1241
    107  CA        20.9360  -30.0410   36.3740 C.3    85  PHE85       0.1605
    108  C         20.4180  -30.7620   35.1300 C.2    85  PHE85       0.2264
    109  O         19.2810  -30.5500   34.7190 O.2    85  PHE85      -0.2867
    110  CB        20.7260  -28.5250   36.2430 C.3    85  PHE85       0.0534
    111  CG        20.9160  -27.7900   37.5370 C.ar   85  PHE85      -0.0203
    112  CD1       19.8570  -27.6240   38.4190 C.ar   85  PHE85      -0.0042
    113  CD2       22.1780  -27.3470   37.9190 C.ar   85  PHE85      -0.0042
    114  CE1       20.0560  -27.0390   39.6560 C.ar   85  PHE85      -0.0003
    115  CE2       22.3820  -26.7600   39.1580 C.ar   85  PHE85      -0.0003
    116  CZ        21.3200  -26.6070   40.0290 C.ar   85  PHE85      -0.0000
    117  N         17.1230  -32.4530   35.9240 N.3    88  LEU88      -0.1245
    118  CA        16.0950  -31.4580   36.1860 C.3    88  LEU88       0.1561
    119  C         15.7440  -30.7580   34.8830 C.2    88  LEU88       0.2260
    120  O         14.6450  -30.2260   34.7270 O.2    88  LEU88      -0.2867
    121  CB        16.5760  -30.4440   37.2270 C.3    88  LEU88       0.0270
    122  CG        16.5120  -30.9120   38.6850 C.3    88  LEU88       0.0019
    123  CD1       17.1920  -29.9100   39.6050 C.3    88  LEU88       0.0001
    124  CD2       15.0480  -31.0980   39.0830 C.3    88  LEU88       0.0001
    125  N         13.1970  -32.7530   33.2160 N.3    91  LEU91      -0.1231
    126  CA        11.9340  -32.5300   33.9060 C.3    91  LEU91       0.1693
    127  C         11.2510  -31.2210   33.4980 C.2    91  LEU91       0.2592
    128  O         10.1020  -31.2240   33.0600 O.2    91  LEU91      -0.2718
    129  CB        12.1480  -32.5170   35.4210 C.3    91  LEU91       0.0284
    130  CG        10.8910  -32.1320   36.2100 C.3    91  LEU91       0.0019
    131  CD1        9.7870  -33.1370   35.9060 C.3    91  LEU91       0.0001
    132  CD2       11.1830  -32.0900   37.7030 C.3    91  LEU91       0.0001
    133  N         11.9630  -30.1070   33.6510 N.am   92  HIS92      -0.1976
    134  CA        11.4130  -28.7960   33.3260 C.3    92  HIS92       0.1656
    135  C         11.1780  -28.5420   31.8430 C.2    92  HIS92       0.2291
    136  O         10.1000  -28.0870   31.4610 O.2    92  HIS92      -0.2864
    137  CB        12.3000  -27.6830   33.8900 C.3    92  HIS92       0.0771
    138  CG        12.3070  -27.6140   35.3860 C.ar   92  HIS92       0.0820
    139  ND1       13.0240  -28.4920   36.1710 N.ar   92  HIS92      -0.2267
    140  CD2       11.6700  -26.7810   36.2420 C.ar   92  HIS92       0.1154
    141  CE1       12.8300  -28.2000   37.4460 C.ar   92  HIS92       0.1986
    142  NE2       12.0110  -27.1650   37.5170 N.ar   92  HIS92      -0.2212
    143  N          7.7920  -30.9450   31.2370 N.3    96  LEU96      -0.1245
    144  CA         6.8240  -29.9040   31.5750 C.3    96  LEU96       0.1561
    145  C          6.6850  -28.7740   30.5610 C.2    96  LEU96       0.2260
    146  O          5.6930  -28.0500   30.5630 O.2    96  LEU96      -0.2867
    147  CB         7.1620  -29.3310   32.9560 C.3    96  LEU96       0.0270
    148  CG         7.1280  -30.3840   34.0720 C.3    96  LEU96       0.0019
    149  CD1        7.6900  -29.8140   35.3600 C.3    96  LEU96       0.0001
    150  CD2        5.6980  -30.8600   34.2700 C.3    96  LEU96       0.0001
    151  N          8.2240  -26.0130   30.4600 N.3    98  VAL98      -0.1245
    152  CA         8.2960  -24.6990   31.0860 C.3    98  VAL98       0.1561
    153  C          9.1750  -23.8380   30.1880 C.2    98  VAL98       0.2260
    154  O         10.3490  -24.1440   29.9970 O.2    98  VAL98      -0.2867
    155  CB         8.9400  -24.7700   32.4860 C.3    98  VAL98       0.0252
    156  CG1        9.1400  -23.3640   33.0390 C.3    98  VAL98       0.0019
    157  CG2        8.0590  -25.5780   33.4190 C.3    98  VAL98       0.0019
    158  N         10.8740  -18.2650   32.0210 N.3   102  ASN102     -0.1225
    159  CA        10.4800  -18.3380   33.4190 C.3   102  ASN102      0.1785
    160  C         11.6590  -18.6280   34.3560 C.2   102  ASN102      0.2597
    161  O         11.6390  -18.2260   35.5210 O.2   102  ASN102     -0.2718
    162  CB         9.3680  -19.3810   33.5770 C.3   102  ASN102      0.1169
    163  CG         8.1480  -19.0470   32.7330 C.2   102  ASN102      0.2627
    164  OD1        7.7250  -19.8320   31.8800 O.2   102  ASN102     -0.2716
    165  ND2        7.5840  -17.8670   32.9580 N.am  102  ASN102     -0.0877
    166  N         12.6820  -19.3110   33.8490 N.am  103  PHE103     -0.1976
    167  CA        13.8560  -19.6130   34.6590 C.3   103  PHE103      0.1639
    168  C         14.5550  -18.3000   34.9890 C.2   103  PHE103      0.2290
    169  O         15.0000  -18.0830   36.1210 O.2   103  PHE103     -0.2864
    170  CB        14.8330  -20.5260   33.9060 C.3   103  PHE103      0.0560
    171  CG        14.2500  -21.8630   33.5130 C.ar  103  PHE103     -0.0200
    172  CD1       13.3550  -22.5270   34.3500 C.ar  103  PHE103     -0.0042
    173  CD2       14.6240  -22.4690   32.3170 C.ar  103  PHE103     -0.0042
    174  CE1       12.8380  -23.7760   34.0040 C.ar  103  PHE103     -0.0003
    175  CE2       14.1160  -23.7170   31.9570 C.ar  103  PHE103     -0.0003
    176  CZ        13.2180  -24.3750   32.8030 C.ar  103  PHE103     -0.0000
    177  N         12.5660  -16.4370   37.6000 N.3   106  LEU106     -0.1245
    178  CA        12.7490  -16.9420   38.9600 C.3   106  LEU106      0.1561
    179  C         14.1200  -16.4450   39.4210 C.2   106  LEU106      0.2260
    180  O         14.3000  -16.0400   40.5740 O.2   106  LEU106     -0.2867
    181  CB        12.6950  -18.4750   39.0010 C.3   106  LEU106      0.0270
    182  CG        12.8910  -19.1140   40.3850 C.3   106  LEU106      0.0019
    183  CD1       11.9240  -18.5190   41.3730 C.3   106  LEU106      0.0001
    184  CD2       12.6950  -20.6200   40.2940 C.3   106  LEU106      0.0001
    185  N         22.3600  -21.6050   35.9830 N.3   137  VAL137     -0.1231
    186  CA        21.3760  -22.6370   36.2990 C.3   137  VAL137      0.1692
    187  C         20.2350  -22.5820   35.2740 C.2   137  VAL137      0.2591
    188  O         19.8270  -23.6080   34.7350 O.2   137  VAL137     -0.2718
    189  CB        20.8330  -22.4590   37.7430 C.3   137  VAL137      0.0266
    190  CG1       19.5830  -23.3120   37.9620 C.3   137  VAL137      0.0020
    191  CG2       21.9220  -22.8650   38.7500 C.3   137  VAL137      0.0020
    192  N         19.7450  -21.3780   34.9920 N.am  138  ALA138     -0.1980
    193  CA        18.6730  -21.1940   34.0190 C.3   138  ALA138      0.1597
    194  C         19.0540  -21.8330   32.6860 C.2   138  ALA138      0.2287
    195  O         18.2360  -22.4990   32.0410 O.2   138  ALA138     -0.2864
    196  CB        18.4020  -19.7130   33.8180 C.3   138  ALA138      0.0319
    197  N         19.0690  -25.5960   32.7170 N.3   141  LEU141     -0.1245
    198  CA        17.7210  -26.1560   32.7840 C.3   141  LEU141      0.1561
    199  C         17.0030  -26.1360   31.4350 C.2   141  LEU141      0.2260
    200  O         16.0990  -26.9410   31.1880 O.2   141  LEU141     -0.2867
    201  CB        16.8820  -25.4120   33.8210 C.3   141  LEU141      0.0270
    202  CG        17.1930  -25.6950   35.2910 C.3   141  LEU141      0.0019
    203  CD1       16.3230  -24.8090   36.1660 C.3   141  LEU141      0.0001
    204  CD2       16.9400  -27.1580   35.6080 C.3   141  LEU141      0.0001
@<TRIPOS>BOND
     1   154   153    2
     2   153   152    1
     3   151   152    1
     4   145   146    2
     5   145   144    1
     6   152   155    1
     7   200   199    2
     8   143   144    1
     9   199   198    1
    10   136   135    2
    11   144   147    1
    12   135   134    1
    13   164   163    2
    14   175   173   ar
    15   175   176   ar
    16   158   159    1
    17   195   194    2
    18   173   171   ar
    19    34    32   ar
    20    34    33   ar
    21   155   156    1
    22   155   157    1
    23   194   193    1
    24   197   198    1
    25   163   165   am
    26   163   162    1
    27   198   201    1
    28    32    30   ar
    29   176   174   ar
    30   147   148    1
    31   128   127    2
    32   125   126    1
    33   134   133    1
    34   134   137    1
    35   159   162    1
    36   159   160    1
    37    33    31   ar
    38   127   133   am
    39   127   126    1
    40   171   170    1
    41   171   172   ar
    42   196   193    1
    43   201   202    1
    44   166   160   am
    45   166   167    1
    46   137   138    1
    47   170   167    1
    48   126   129    1
    49   174   172   ar
    50   193   192    1
    51   148   150    1
    52   148   149    1
    53    30    29   ar
    54   160   161    2
    55   167   168    1
    56   109   108    2
    57   120   119    2
    58   188   187    2
    59    31    29   ar
    60   119   118    1
    61   168   169    2
    62   192   187   am
    63    29    28    1
    64   108   107    1
    65   187   186    1
    66   202   204    1
    67   202   203    1
    68   138   139   ar
    69   138   140   ar
    70   129   130    1
    71   131   130    1
    72   117   118    1
    73   185   186    1
    74    17    18    1
    75   139   141   ar
    76   118   121    1
    77   130   132    1
    78   140   142   ar
    79   110   107    1
    80   110   111    1
    81   186   189    1
    82    23    21    1
    83   107   106    1
    84    18    21    1
    85    18    19    1
    86    28    25    1
    87    24    25    1
    88    25    26    1
    89    21    22    1
    90   121   122    1
    91    19    20    2
    92   141   142   ar
    93   111   113   ar
    94   111   112   ar
    95   177   178    1
    96   189   190    1
    97   189   191    1
    98   113   115   ar
    99    26    27    2
   100    26    35   am
   101   112   114   ar
   102   122   124    1
   103   122   123    1
   104    15    14    1
   105   178   181    1
   106   178   179    1
   107   181   182    1
   108    35    36    1
   109   115   116   ar
   110   179   180    2
   111   114   116   ar
   112    44    45   ar
   113    44    42   ar
   114    14    16    1
   115    14    13    1
   116    12    11    2
   117    45    43   ar
   118    42    40   ar
   119   184   182    1
   120   182   183    1
   121    36    37    1
   122    36    39    1
   123    37    38    2
   124    43    41   ar
   125    40    41   ar
   126    40    39    1
   127   105   104   ar
   128   105   103   ar
   129   104   102   ar
   130    11    10    1
   131    13    10    1
   132    10     9    1
   133    46    47    1
   134   103   101   ar
   135   102   100   ar
   136    94    93    1
   137    51    50    1
   138    72    71   ar
   139    72    70   ar
   140    50    47    1
   141    71    69   ar
   142   101   100   ar
   143   100    99    1
   144    47    48    1
   145     7     6    1
   146    93    90    1
   147    87    86    1
   148    92    91    2
   149    88    86    1
   150    70    68   ar
   151    96    95    1
   152    96    99    1
   153    96    97    1
   154    91    95   am
   155    91    90    1
   156     4     3    2
   157    69    68   ar
   158    98    97    2
   159    90    89    1
   160    52    48   am
   161    52    53    1
   162    86    83    1
   163    48    49    2
   164    62    60   ar
   165    62    61   ar
   166    60    58   ar
   167    85    84    2
   168     6     8    1
   169     6     5    1
   170    61    59   ar
   171    58    57   ar
   172    68    67    1
   173    83    84    1
   174    83    82    1
   175     2     3    1
   176     2     5    1
   177     2     1    1
   178    59    57   ar
   179    57    56    1
   180    56    53    1
   181    53    54    1
   182    76    75    2
   183    82    75   am
   184    67    64    1
   185    54    55    2
   186    75    74    1
   187    66    65    2
   188    77    74    1
   189    77    78    1
   190    65    64    1
   191    64    63    1
   192    79    78    1
   193    79    80    1
   194    74    73    1
   195    81    80    1
