@<TRIPOS>MOLECULE
tmp/3atmA00.pdb
 101 99 0 0 0
SMALL
GASTEIGER

@<TRIPOS>ATOM
      1  N          7.3020  -16.6630    8.6650 N.3    40  HIS40      -0.1241
      2  CA         6.3040  -17.7380    8.6460 C.3    40  HIS40       0.1621
      3  C          5.2640  -17.5390    7.5310 C.2    40  HIS40       0.2264
      4  O          4.4680  -18.3930    7.2880 O.2    40  HIS40      -0.2867
      5  CB         5.6810  -18.0340    9.9920 C.3    40  HIS40       0.0745
      6  CG         4.6550  -17.0590   10.4240 C.ar   40  HIS40       0.0817
      7  ND1        3.3460  -17.1320   10.0330 N.ar   40  HIS40      -0.2268
      8  CD2        4.7420  -16.0220   11.2750 C.ar   40  HIS40       0.1154
      9  CE1        2.6680  -16.1650   10.6180 C.ar   40  HIS40       0.1986
     10  NE2        3.5030  -15.4730   11.3660 N.ar   40  HIS40      -0.2212
     11  N         -6.8580   -8.2200   20.2740 N.3   171  ASP171     -0.1225
     12  CA        -5.6310   -8.8840   19.8740 C.3   171  ASP171      0.1805
     13  C         -5.5620   -8.9970   18.3320 C.2   171  ASP171      0.2598
     14  O         -6.5440   -8.8360   17.6860 O.2   171  ASP171     -0.2718
     15  CB        -5.5660  -10.2920   20.4860 C.3   171  ASP171      0.1424
     16  CG        -4.1430  -10.8930   20.5230 C.2   171  ASP171      0.3668
     17  OD1       -3.2230  -10.2730   20.0340 O.co2 171  ASP171     -0.2456
     18  OD2       -4.0080  -11.9910   21.0600 O.co2 171  ASP171     -0.2456
     19  N         -4.3860   -9.2430   17.7920 N.am  172  SER172     -0.1938
     20  CA        -4.2540   -9.7400   16.4450 C.3   172  SER172      0.2055
     21  C         -4.6530  -11.2230   16.3720 C.2   172  SER172      0.2643
     22  O         -4.7300  -11.8480   17.3580 O.2   172  SER172     -0.2714
     23  CB        -2.8320   -9.5670   15.9060 C.3   172  SER172      0.2130
     24  OG        -1.8540  -10.1380   16.7000 O.3   172  SER172     -0.2179
     25  N         -4.8850  -11.7460   15.1670 N.am  173  CYS173     -0.1953
     26  CA        -5.3100  -13.1290   15.0500 C.3   173  CYS173      0.1843
     27  C         -4.8920  -13.7550   13.6960 C.2   173  CYS173      0.2625
     28  O         -4.1600  -13.1840   12.9870 O.2   173  CYS173     -0.2714
     29  CB        -6.7860  -13.2290   15.3570 C.3   173  CYS173      0.0997
     30  SG        -7.5050  -14.8360   15.8050 S.3   173  CYS173     -0.0797
     31  N         -5.4060  -14.9570   13.4350 N.am  174  GLN174     -0.1963
     32  CA        -5.0420  -15.7080   12.2700 C.3   174  GLN174      0.1733
     33  C         -5.3780  -14.8440   11.0520 C.2   174  GLN174      0.2616
     34  O         -6.4220  -14.3450   10.9860 O.2   174  GLN174     -0.2715
     35  CB        -5.8220  -17.0260   12.2170 C.3   174  GLN174      0.0408
     36  CG        -5.6210  -17.7750   10.9510 C.3   174  GLN174      0.0908
     37  CD        -5.9610  -19.2230   11.0440 C.2   174  GLN174      0.2608
     38  OE1       -6.7920  -19.6240   11.8290 O.2   174  GLN174     -0.2717
     39  NE2       -5.3370  -20.0000   10.2240 N.am  174  GLN174     -0.0878
     40  N         -4.4440  -14.7460   10.1190 N.am  175  GLY175     -0.1955
     41  CA        -4.5770  -13.9590    8.9100 C.3   175  GLY175      0.1869
     42  C         -4.0300  -12.5430    9.0290 C.2   175  GLY175      0.2309
     43  O         -3.9260  -11.8560    8.0350 O.2   175  GLY175     -0.2863
     44  N         -1.0820  -12.2640   10.3680 N.3   177  SER177     -0.1217
     45  CA         0.2720  -12.6340   10.3790 C.3   177  SER177      0.1889
     46  C          1.0220  -11.8380    9.3250 C.2   177  SER177      0.2288
     47  O          0.5330  -11.6680    8.2750 O.2   177  SER177     -0.2866
     48  CB         0.4050  -14.1110    9.9330 C.3   177  SER177      0.2089
     49  OG         0.0250  -15.0080   10.8710 O.3   177  SER177     -0.2183
     50  N          3.3290   -8.9060   12.9620 N.3   191  VAL191     -0.1231
     51  CA         2.4360   -9.8520   13.6400 C.3   191  VAL191      0.1692
     52  C          3.1030  -11.2360   13.4620 C.2   191  VAL191      0.2593
     53  O          3.2900  -11.6900   12.3840 O.2   191  VAL191     -0.2718
     54  CB         1.0110   -9.8620   13.0600 C.3   191  VAL191      0.0266
     55  CG1        0.1430  -10.8750   13.7500 C.3   191  VAL191      0.0020
     56  CG2        0.3950   -8.5040   13.1860 C.3   191  VAL191      0.0020
     57  N          3.4200  -11.8660   14.5870 N.am  192  SER192     -0.1938
     58  CA         4.1440  -13.1170   14.5540 C.3   192  SER192      0.2055
     59  C          3.4240  -14.3590   15.1470 C.2   192  SER192      0.2643
     60  O          3.1680  -15.2800   14.4670 O.2   192  SER192     -0.2714
     61  CB         5.4910  -12.9230   15.2290 C.3   192  SER192      0.2130
     62  OG         6.3070  -14.0290   15.1690 O.3   192  SER192     -0.2179
     63  N          3.1180  -14.2970   16.4300 N.am  193  TRP193     -0.1959
     64  CA         2.5230  -15.4370   17.0930 C.3   193  TRP193      0.1771
     65  C          1.7850  -15.0980   18.3930 C.2   193  TRP193      0.2620
     66  O          1.7890  -13.9940   18.8350 O.2   193  TRP193     -0.2715
     67  CB         3.5200  -16.5500   17.3040 C.3   193  TRP193      0.0590
     68  CG         4.6170  -16.2660   18.2850 C.ar  193  TRP193      0.0006
     69  CD1        5.7920  -15.6490   18.0480 C.ar  193  TRP193      0.0946
     70  CD2        4.6610  -16.6870   19.6480 C.ar  193  TRP193      0.0152
     71  NE1        6.5750  -15.6380   19.1690 N.ar  193  TRP193     -0.2442
     72  CE2        5.8870  -16.2520   20.1790 C.ar  193  TRP193      0.0810
     73  CE3        3.7560  -17.3300   20.4840 C.ar  193  TRP193      0.0012
     74  CZ2        6.2450  -16.5190   21.5020 C.ar  193  TRP193      0.0191
     75  CZ3        4.1080  -17.5780   21.7560 C.ar  193  TRP193      0.0001
     76  CH2        5.3310  -17.1790   22.2630 C.ar  193  TRP193      0.0015
     77  N          1.1060  -16.0980   18.9190 N.am  194  GLY194     -0.1954
     78  CA         0.4370  -15.9910   20.1830 C.3   194  GLY194      0.1869
     79  C         -0.1940  -17.3350   20.5450 C.2   194  GLY194      0.2309
     80  O         -0.0950  -18.2310   19.7980 O.2   194  GLY194     -0.2863
     81  N         -3.6690  -18.7520   20.7350 N.3   196  GLY196     -0.1210
     82  CA        -4.9970  -18.2810   20.4410 C.3   196  GLY196      0.1956
     83  C         -4.9690  -16.7680   20.1460 C.2   196  GLY196      0.2612
     84  O         -3.9360  -16.2160   19.9320 O.2   196  GLY196     -0.2717
     85  N         -6.1370  -16.1520   20.2070 N.am  197  CYS197     -0.1970
     86  CA        -6.3330  -14.7220   20.0450 C.3   197  CYS197      0.1712
     87  C         -7.1590  -14.1600   21.1850 C.2   197  CYS197      0.2296
     88  O         -8.1230  -14.6790   21.5360 O.2   197  CYS197     -0.2864
     89  CB        -7.0840  -14.4760   18.7390 C.3   197  CYS197      0.0983
     90  SG        -6.2750  -15.4070   17.3910 S.3   197  CYS197     -0.0798
     91  N         -0.6550  -10.8850   22.1140 N.3   204  GLY204     -0.1210
     92  CA         0.0930  -11.1600   20.9340 C.3   204  GLY204      0.1956
     93  C          1.5640  -10.8610   21.0440 C.2   204  GLY204      0.2611
     94  O          1.9430   -9.9850   21.7230 O.2   204  GLY204     -0.2717
     95  N          2.3640  -11.6360   20.2970 N.am  205  VAL205     -0.1979
     96  CA         3.7860  -11.4920   20.2090 C.3   205  VAL205      0.1595
     97  C          4.2220  -11.0770   18.8130 C.2   205  VAL205      0.2287
     98  O          3.7170  -11.5370   17.8400 O.2   205  VAL205     -0.2864
     99  CB         4.5420  -12.7930   20.5900 C.3   205  VAL205      0.0276
    100  CG1        5.9850  -12.4810   20.8390 C.3   205  VAL205      0.0022
    101  CG2        3.8810  -13.4080   21.7820 C.3   205  VAL205      0.0022
@<TRIPOS>BOND
     1     4     3    2
     2     3     2    1
     3    43    42    2
     4    47    46    2
     5     2     1    1
     6     2     5    1
     7    41    42    1
     8    41    40    1
     9    46    45    1
    10    48    45    1
    11    48    49    1
    12     5     6    1
    13     7     6   ar
    14     7     9   ar
    15    40    33   am
    16    39    37   am
    17    44    45    1
    18     6     8   ar
    19     9    10   ar
    20    36    37    1
    21    36    35    1
    22    34    33    2
    23    37    38    2
    24    33    32    1
    25     8    10   ar
    26    35    32    1
    27    32    31    1
    28    53    52    2
    29    50    51    1
    30    28    27    2
    31    54    56    1
    32    54    51    1
    33    54    55    1
    34    31    27   am
    35    52    51    1
    36    52    57   am
    37    27    26    1
    38    60    59    2
    39    58    57    1
    40    58    59    1
    41    58    61    1
    42    26    25    1
    43    26    29    1
    44    59    63   am
    45    25    21   am
    46    62    61    1
    47    29    30    1
    48    30    90    1
    49    23    20    1
    50    23    24    1
    51    21    20    1
    52    21    22    2
    53    63    64    1
    54    20    19    1
    55    64    67    1
    56    64    65    1
    57    67    68    1
    58    90    89    1
    59    14    13    2
    60    19    13   am
    61    98    97    2
    62    69    68   ar
    63    69    71   ar
    64    68    70   ar
    65    13    12    1
    66    65    66    2
    67    65    77   am
    68    89    86    1
    69    97    96    1
    70    77    78    1
    71    71    72   ar
    72    70    72   ar
    73    70    73   ar
    74    80    79    2
    75    12    11    1
    76    12    15    1
    77    84    83    2
    78    17    16   ar
    79    86    85    1
    80    86    87    1
    81    83    85   am
    82    83    82    1
    83    72    74   ar
    84    78    79    1
    85    96    95    1
    86    96    99    1
    87    95    93   am
    88    82    81    1
    89    73    75   ar
    90    15    16    1
    91    16    18   ar
    92    99   100    1
    93    99   101    1
    94    92    93    1
    95    92    91    1
    96    93    94    2
    97    87    88    2
    98    74    76   ar
    99    75    76   ar
