@<TRIPOS>MOLECULE
tmp/3atoA01.pdb
 112 111 0 0 0
SMALL
GASTEIGER

@<TRIPOS>ATOM
      1  N          3.5120   23.2580   -4.3090 N.3    35  GLU35      -0.1245
      2  CA         4.1590   22.3730   -3.3500 C.3    35  GLU35       0.1567
      3  C          4.7850   21.1420   -4.0440 C.2    35  GLU35       0.2260
      4  O          5.9070   20.7630   -3.7010 O.2    35  GLU35      -0.2867
      5  CB         3.1670   21.9240   -2.2950 C.3    35  GLU35       0.0388
      6  CG         2.7240   22.9910   -1.3010 C.3    35  GLU35       0.1160
      7  CD         3.8020   23.5040   -0.4080 C.2    35  GLU35       0.3649
      8  OE1        4.9450   22.9810   -0.4220 O.co2  35  GLU35      -0.2457
      9  OE2        3.5120   24.4470    0.3660 O.co2  35  GLU35      -0.2457
     10  N          9.0990   16.9900    3.8910 N.3    52  ASP52      -0.1239
     11  CA         7.7370   17.2050    3.4360 C.3    52  ASP52       0.1674
     12  C          7.3610   16.1220    2.4230 C.2    52  ASP52       0.2266
     13  O          8.1620   15.7680    1.5580 O.2    52  ASP52      -0.2867
     14  CB         7.6180   18.5540    2.7330 C.3    52  ASP52       0.1410
     15  CG         7.6780   19.7240    3.6690 C.2    52  ASP52       0.3668
     16  OD1        7.6160   19.5800    4.8990 O.co2  52  ASP52      -0.2456
     17  OD2        7.7640   20.8830    3.1300 O.co2  52  ASP52      -0.2456
     18  N          2.8210   18.3830    0.5280 N.3    57  GLN57      -0.1231
     19  CA         4.1050   18.6160    1.1960 C.3    57  GLN57       0.1698
     20  C          3.9520   18.7450    2.6950 C.2    57  GLN57       0.2592
     21  O          4.4650   19.6650    3.3270 O.2    57  GLN57      -0.2718
     22  CB         4.8670   19.7750    0.5400 C.3    57  GLN57       0.0381
     23  CG         5.3420   19.4360   -0.8680 C.3    57  GLN57       0.0905
     24  CD         6.4590   18.3870   -0.8390 C.2    57  GLN57       0.2608
     25  OE1        7.6100   18.7100   -0.5770 O.2    57  GLN57      -0.2717
     26  NE2        6.0930   17.1160   -1.0370 N.am   57  GLN57      -0.0878
     27  N          3.3080   17.7360    3.2680 N.am   58  ILE58      -0.1966
     28  CA         3.0230   17.6920    4.7200 C.3    58  ILE58       0.1727
     29  C          4.2690   17.2730    5.4590 C.2    58  ILE58       0.2616
     30  O          4.9530   16.3100    5.0620 O.2    58  ILE58      -0.2715
     31  CB         1.8620   16.7570    4.9400 C.3    58  ILE58       0.0290
     32  CG1        0.5770   17.4610    4.3740 C.3    58  ILE58       0.0022
     33  CG2        1.7040   16.4140    6.4460 C.3    58  ILE58       0.0023
     34  CD1       -0.7000   16.6590    4.4510 C.3    58  ILE58       0.0001
     35  N          4.5240   17.9690    6.5660 N.am   59  ASN59      -0.1972
     36  CA         5.8170   18.0080    7.2300 C.3    59  ASN59       0.1688
     37  C          5.9410   16.9700    8.3840 C.2    59  ASN59       0.2292
     38  O          5.0860   16.9610    9.2570 O.2    59  ASN59      -0.2864
     39  CB         6.0110   19.4600    7.7490 C.3    59  ASN59       0.1181
     40  CG         7.4340   19.7410    8.1960 C.2    59  ASN59       0.2629
     41  OD1        8.2250   18.8350    8.3270 O.2    59  ASN59      -0.2716
     42  ND2        7.7510   21.0120    8.4400 N.am   59  ASN59      -0.0877
     43  N          5.6740   17.7230   12.5050 N.3    62  TRP62      -0.1227
     44  CA         4.4330   17.7090   13.2830 C.3    62  TRP62       0.1737
     45  C          3.4290   16.6250   12.9100 C.2    62  TRP62       0.2595
     46  O          2.6660   16.1860   13.7860 O.2    62  TRP62      -0.2718
     47  CB         3.6920   19.0660   13.2080 C.3    62  TRP62       0.0564
     48  CG         4.5060   20.1910   13.7680 C.ar   62  TRP62       0.0003
     49  CD1        5.2260   21.1130   13.0730 C.ar   62  TRP62       0.0946
     50  CD2        4.6800   20.5110   15.1630 C.ar   62  TRP62       0.0152
     51  NE1        5.8700   21.9750   13.9540 N.ar   62  TRP62      -0.2442
     52  CE2        5.5440   21.6180   15.2330 C.ar   62  TRP62       0.0810
     53  CE3        4.2170   19.9320   16.3540 C.ar   62  TRP62       0.0012
     54  CZ2        5.9270   22.2060   16.4610 C.ar   62  TRP62       0.0191
     55  CZ3        4.5970   20.5070   17.5720 C.ar   62  TRP62       0.0001
     56  CH2        5.4480   21.6300   17.6070 C.ar   62  TRP62       0.0015
     57  N          3.3510   16.2130   11.6330 N.am   63  TRP63      -0.1976
     58  CA         2.1160   15.6230   11.1390 C.3    63  TRP63       0.1640
     59  C          2.1600   14.1410   10.8320 C.2    63  TRP63       0.2290
     60  O          1.1540   13.4700   10.9510 O.2    63  TRP63      -0.2864
     61  CB         1.6210   16.3940    9.8880 C.3    63  TRP63       0.0576
     62  CG         1.4550   17.8610   10.2140 C.ar   63  TRP63       0.0006
     63  CD1        2.2590   18.8930    9.8000 C.ar   63  TRP63       0.0946
     64  CD2        0.4860   18.4330   11.0980 C.ar   63  TRP63       0.0152
     65  NE1        1.8500   20.0740   10.3830 N.ar   63  TRP63      -0.2442
     66  CE2        0.7590   19.8380   11.1710 C.ar   63  TRP63       0.0810
     67  CE3       -0.6110   17.9110   11.7920 C.ar   63  TRP63       0.0012
     68  CZ2       -0.0120   20.7210   11.9210 C.ar   63  TRP63       0.0191
     69  CZ3       -1.3960   18.8240   12.5570 C.ar   63  TRP63       0.0001
     70  CH2       -1.0570   20.1840   12.6150 C.ar   63  TRP63       0.0015
     71  N         -4.2520   20.1560    9.5770 N.3    98  ILE98      -0.1245
     72  CA        -3.2990   21.2570    9.5130 C.3    98  ILE98       0.1561
     73  C         -4.0070   22.6040    9.3760 C.2    98  ILE98       0.2260
     74  O         -3.6650   23.5600   10.0970 O.2    98  ILE98      -0.2867
     75  CB        -2.3120   21.0350    8.3450 C.3    98  ILE98       0.0252
     76  CG1       -1.5470   19.7260    8.5710 C.3    98  ILE98       0.0019
     77  CG2       -1.3710   22.2320    8.1800 C.3    98  ILE98       0.0019
     78  CD1       -0.7640   19.2870    7.3190 C.3    98  ILE98       0.0001
     79  N         -5.4150   24.3060   12.4520 N.3   101  ASP101     -0.1239
     80  CA        -4.5190   24.4720   13.6110 C.3   101  ASP101      0.1674
     81  C         -4.3400   25.9290   14.0660 C.2   101  ASP101      0.2266
     82  O         -3.5880   26.2010   15.0020 O.2   101  ASP101     -0.2867
     83  CB        -3.1790   23.7480   13.3680 C.3   101  ASP101      0.1410
     84  CG        -2.2150   24.5380   12.4980 C.2   101  ASP101      0.3668
     85  OD1       -1.2310   23.9180   12.0150 O.co2 101  ASP101     -0.2456
     86  OD2       -2.4340   25.7450   12.2620 O.co2 101  ASP101     -0.2456
     87  N         -0.1650   27.8620    6.9650 N.3   107  ALA107     -0.1231
     88  CA         0.7050   26.7300    7.3320 C.3   107  ALA107      0.1694
     89  C          1.5780   26.3170    6.1530 C.2   107  ALA107      0.2592
     90  O          2.6490   25.7660    6.3440 O.2   107  ALA107     -0.2718
     91  CB        -0.1250   25.5870    7.8560 C.3   107  ALA107      0.0304
     92  N          1.0480   26.4870    4.9410 N.am  108  TRP108     -0.1962
     93  CA         1.8140   26.1880    3.7220 C.3   108  TRP108      0.1771
     94  C          2.4760   27.4850    3.2580 C.2   108  TRP108      0.2619
     95  O          1.8080   28.3850    2.6920 O.2   108  TRP108     -0.2715
     96  CB         0.8760   25.6380    2.6260 C.3   108  TRP108      0.0590
     97  CG         0.4000   24.2560    2.9020 C.ar  108  TRP108      0.0006
     98  CD1        1.0300   23.0970    2.5460 C.ar  108  TRP108      0.0946
     99  CD2       -0.7800   23.8560    3.6210 C.ar  108  TRP108      0.0152
    100  NE1        0.3150   22.0030    2.9980 N.ar  108  TRP108     -0.2442
    101  CE2       -0.8190   22.4360    3.6260 C.ar  108  TRP108      0.0810
    102  CE3       -1.8470   24.5490    4.2020 C.ar  108  TRP108      0.0012
    103  CZ2       -1.8420   21.7060    4.2330 C.ar  108  TRP108      0.0191
    104  CZ3       -2.8770   23.8290    4.7840 C.ar  108  TRP108      0.0001
    105  CH2       -2.8740   22.4250    4.8110 C.ar  108  TRP108      0.0015
    106  N          3.7820   27.6220    3.4990 N.am  109  VAL109     -0.1977
    107  CA         4.4680   28.8390    3.1180 C.3   109  VAL109      0.1596
    108  C          4.2830   29.1580    1.6250 C.2   109  VAL109      0.2287
    109  O          4.1060   30.3200    1.2660 O.2   109  VAL109     -0.2864
    110  CB         5.9520   28.7720    3.5980 C.3   109  VAL109      0.0276
    111  CG1        6.7750   29.9000    2.9770 C.3   109  VAL109      0.0022
    112  CG2        6.0510   28.8130    5.1470 C.3   109  VAL109      0.0022
@<TRIPOS>BOND
     1     1     2    1
     2     3     4    2
     3     3     2    1
     4     2     5    1
     5     5     6    1
     6     6     7    1
     7    26    24   am
     8    23    24    1
     9    23    22    1
    10    24    25    2
    11     8     7   ar
    12     7     9   ar
    13    18    19    1
    14    22    19    1
    15    19    20    1
    16   109   108    2
    17    13    12    2
    18   108   107    1
    19    12    11    1
    20    98    97   ar
    21    98   100   ar
    22    96    97    1
    23    96    93    1
    24    95    94    2
    25    20    27   am
    26    20    21    2
    27    14    11    1
    28    14    15    1
    29    97    99   ar
    30   111   110    1
    31   100   101   ar
    32   107   106    1
    33   107   110    1
    34    17    15   ar
    35    94   106   am
    36    94    93    1
    37    27    28    1
    38    11    10    1
    39   110   112    1
    40    99   101   ar
    41    99   102   ar
    42   101   103   ar
    43    15    16   ar
    44    93    92    1
    45   102   104   ar
    46   103   105   ar
    47    32    34    1
    48    32    31    1
    49    28    31    1
    50    28    29    1
    51   104   105   ar
    52    31    33    1
    53    92    89   am
    54    30    29    2
    55    29    35   am
    56    89    90    2
    57    89    88    1
    58    35    36    1
    59    87    88    1
    60    36    39    1
    61    36    37    1
    62    78    76    1
    63    88    91    1
    64    39    40    1
    65    77    75    1
    66    40    41    2
    67    40    42   am
    68    75    76    1
    69    75    72    1
    70    37    38    2
    71    73    72    1
    72    73    74    2
    73    72    71    1
    74    63    62   ar
    75    63    65   ar
    76    61    62    1
    77    61    58    1
    78    62    64   ar
    79    65    66   ar
    80    59    60    2
    81    59    58    1
    82    64    66   ar
    83    64    67   ar
    84    58    57    1
    85    66    68   ar
    86    57    45   am
    87    67    69   ar
    88    68    70   ar
    89    85    84   ar
    90    86    84   ar
    91    79    80    1
    92    84    83    1
    93    43    44    1
    94    69    70   ar
    95    45    44    1
    96    45    46    2
    97    49    48   ar
    98    49    51   ar
    99    47    44    1
   100    47    48    1
   101    83    80    1
   102    80    81    1
   103    48    50   ar
   104    51    52   ar
   105    81    82    2
   106    50    52   ar
   107    50    53   ar
   108    52    54   ar
   109    53    55   ar
   110    54    56   ar
   111    55    56   ar
