@<TRIPOS>MOLECULE
tmp/3atqA01.pdb
 184 174 0 0 0
SMALL
GASTEIGER

@<TRIPOS>ATOM
      1  N         11.8250   26.6890   17.6020 N.3    48  GLY48      -0.1225
      2  CA        12.3010   27.2920   18.8520 C.3    48  GLY48       0.1811
      3  C         13.4840   28.2040   18.5890 C.2    48  GLY48       0.2280
      4  O         13.7840   29.1110   19.4060 O.2    48  GLY48      -0.2866
      5  N         16.7080   27.5610   18.4280 N.3    50  ALA50      -0.1231
      6  CA        17.9230   27.3350   19.2310 C.3    50  ALA50       0.1694
      7  C         18.8580   26.3630   18.5360 C.2    50  ALA50       0.2592
      8  O         18.4520   25.2360   18.2310 O.2    50  ALA50      -0.2718
      9  CB        17.5500   26.7800   20.6130 C.3    50  ALA50       0.0304
     10  N         20.1060   26.7810   18.3100 N.am   51  VAL51      -0.1966
     11  CA        21.0780   25.9190   17.6210 C.3    51  VAL51       0.1727
     12  C         22.4220   25.9490   18.3540 C.2    51  VAL51       0.2616
     13  O         22.9210   27.0030   18.6960 O.2    51  VAL51      -0.2715
     14  CB        21.2660   26.2780   16.0960 C.3    51  VAL51       0.0290
     15  CG1       22.1190   25.1970   15.3720 C.3    51  VAL51       0.0023
     16  CG2       19.9140   26.4080   15.3840 C.3    51  VAL51       0.0023
     17  N         22.9640   24.7610   18.5970 N.am   52  SER52      -0.1950
     18  CA        24.2490   24.5760   19.2670 C.3    52  SER52       0.1924
     19  C         25.3650   25.2330   18.4710 C.2    52  SER52       0.2314
     20  O         25.3400   25.2230   17.2440 O.2    52  SER52      -0.2863
     21  CB        24.5430   23.0680   19.3770 C.3    52  SER52       0.2116
     22  OG        25.7000   22.8250   20.1450 O.3    52  SER52      -0.2180
     23  N         27.2760   22.4820   16.3530 N.3    55  HIS55      -0.1241
     24  CA        26.8420   22.1230   14.9830 C.3    55  HIS55       0.1621
     25  C         27.4960   23.0190   13.9360 C.2    55  HIS55       0.2264
     26  O         27.8740   22.5500   12.8590 O.2    55  HIS55      -0.2867
     27  CB        25.3100   22.1550   14.8190 C.3    55  HIS55       0.0745
     28  CG        24.6210   21.0110   15.4800 C.ar   55  HIS55       0.0817
     29  ND1       23.6080   21.1810   16.4000 N.ar   55  HIS55      -0.2268
     30  CD2       24.8220   19.6790   15.3840 C.ar   55  HIS55       0.1154
     31  CE1       23.2050   19.9990   16.8320 C.ar   55  HIS55       0.1986
     32  NE2       23.9310   19.0710   16.2360 N.ar   55  HIS55      -0.2212
     33  N         21.5190   25.1700   29.3880 N.3    76  ILE76      -0.1245
     34  CA        20.1200   24.7700   29.5120 C.3    76  ILE76       0.1561
     35  C         19.8400   24.3720   30.9450 C.2    76  ILE76       0.2260
     36  O         20.6620   23.7040   31.5890 O.2    76  ILE76      -0.2867
     37  CB        19.7640   23.5460   28.5980 C.3    76  ILE76       0.0252
     38  CG1       19.9640   23.8720   27.1180 C.3    76  ILE76       0.0019
     39  CG2       18.3140   23.1160   28.7870 C.3    76  ILE76       0.0019
     40  CD1       21.3660   23.6430   26.5960 C.3    76  ILE76       0.0001
     41  N          6.6270   14.1800   16.5660 N.3   183  ASP183     -0.1239
     42  CA         5.8780   15.0330   17.4770 C.3   183  ASP183      0.1674
     43  C          5.1430   16.1200   16.7020 C.2   183  ASP183      0.2266
     44  O          5.5140   16.4580   15.5550 O.2   183  ASP183     -0.2867
     45  CB         6.8230   15.7420   18.4390 C.3   183  ASP183      0.1410
     46  CG         7.2890   14.8750   19.5760 C.2   183  ASP183      0.3668
     47  OD1        7.0840   13.6430   19.5860 O.co2 183  ASP183     -0.2456
     48  OD2        7.8900   15.4760   20.4960 O.co2 183  ASP183     -0.2456
     49  N          4.4120   20.1520   17.3010 N.3   185  ALA185     -0.1245
     50  CA         5.0230   21.1180   18.1780 C.3   185  ALA185      0.1562
     51  C          4.4730   22.4830   17.8400 C.2   185  ALA185      0.2260
     52  O          4.0590   22.7240   16.6960 O.2   185  ALA185     -0.2867
     53  CB         6.5810   21.0630   18.0660 C.3   185  ALA185      0.0290
     54  N         18.5160   28.4150   28.2440 N.3   202  LEU202     -0.1245
     55  CA        17.2500   27.8470   27.7730 C.3   202  LEU202      0.1561
     56  C         16.6800   27.0890   28.9550 C.2   202  LEU202      0.2260
     57  O         17.4300   26.6630   29.8380 O.2   202  LEU202     -0.2867
     58  CB        17.4730   26.8600   26.6030 C.3   202  LEU202      0.0270
     59  CG        18.2680   27.3370   25.3820 C.3   202  LEU202      0.0019
     60  CD1       18.3480   26.2460   24.3320 C.3   202  LEU202      0.0001
     61  CD2       17.6620   28.6220   24.7730 C.3   202  LEU202      0.0001
     62  N         14.1050   23.8630   29.7760 N.3   204  ILE204     -0.1245
     63  CA        13.3300   22.7360   29.2880 C.3   204  ILE204      0.1561
     64  C         12.6270   22.0690   30.4790 C.2   204  ILE204      0.2260
     65  O         13.2750   21.7310   31.4700 O.2   204  ILE204     -0.2867
     66  CB        14.2230   21.7520   28.4980 C.3   204  ILE204      0.0252
     67  CG1       14.6950   22.4330   27.1940 C.3   204  ILE204      0.0019
     68  CG2       13.4750   20.4370   28.2170 C.3   204  ILE204      0.0019
     69  CD1       15.6580   21.6270   26.3350 C.3   204  ILE204      0.0001
     70  N          5.1520   12.7580   25.8520 N.3   213  GLY213     -0.1210
     71  CA         6.0350   12.3430   24.7600 C.3   213  GLY213      0.1956
     72  C          6.9540   13.4140   24.1920 C.2   213  GLY213      0.2612
     73  O          7.6700   13.1600   23.2230 O.2   213  GLY213     -0.2717
     74  N          6.9040   14.6100   24.7690 N.am  214  GLY214     -0.1942
     75  CA         7.7650   15.7200   24.3560 C.3   214  GLY214      0.2014
     76  C          8.1940   16.5190   25.5770 C.2   214  GLY214      0.2638
     77  O          8.5730   15.9390   26.6010 O.2   214  GLY214     -0.2714
     78  N          8.1830   17.8480   25.4650 N.am  215  TYR215     -0.1973
     79  CA         8.4730   18.7060   26.6070 C.3   215  TYR215      0.1639
     80  C          8.0160   20.1150   26.3400 C.2   215  TYR215      0.2290
     81  O          7.6630   20.4410   25.2040 O.2   215  TYR215     -0.2864
     82  CB         9.9510   18.6870   26.9840 C.3   215  TYR215      0.0560
     83  CG        10.9250   19.0960   25.9040 C.ar  215  TYR215     -0.0198
     84  CD1       11.1270   20.4500   25.5930 C.ar  215  TYR215     -0.0009
     85  CD2       11.6930   18.1340   25.2310 C.ar  215  TYR215     -0.0009
     86  CE1       12.0630   20.8380   24.6160 C.ar  215  TYR215      0.0417
     87  CE2       12.6310   18.5180   24.2420 C.ar  215  TYR215      0.0417
     88  CZ        12.8020   19.8850   23.9540 C.ar  215  TYR215      0.1957
     89  OH        13.7110   20.3160   22.9900 O.3   215  TYR215     -0.2866
     90  N          9.1350   24.2160   26.6380 N.3   217  TRP217     -0.1241
     91  CA        10.3450   24.9970   26.6460 C.3   217  TRP217      0.1605
     92  C         10.1040   26.4750   26.7840 C.2   217  TRP217      0.2264
     93  O          9.0390   26.9640   26.4840 O.2   217  TRP217     -0.2867
     94  CB        11.1940   24.7280   25.3920 C.3   217  TRP217      0.0550
     95  CG        10.6890   25.3250   24.1180 C.ar  217  TRP217      0.0003
     96  CD1       10.8760   26.6150   23.6610 C.ar  217  TRP217      0.0946
     97  CD2        9.9620   24.6400   23.0990 C.ar  217  TRP217      0.0152
     98  NE1       10.2730   26.7680   22.4230 N.ar  217  TRP217     -0.2442
     99  CE2        9.7190   25.5660   22.0540 C.ar  217  TRP217      0.0810
    100  CE3        9.5030   23.3300   22.9590 C.ar  217  TRP217      0.0012
    101  CZ2        9.0230   25.2190   20.8890 C.ar  217  TRP217      0.0191
    102  CZ3        8.8060   22.9850   21.7900 C.ar  217  TRP217      0.0001
    103  CH2        8.5670   23.9280   20.7840 C.ar  217  TRP217      0.0015
    104  N         12.6190   29.5530   25.7370 N.3   219  PHE219     -0.1241
    105  CA        13.9090   29.9030   25.1160 C.3   219  PHE219      0.1605
    106  C         14.0030   31.4300   24.9930 C.2   219  PHE219      0.2264
    107  O         13.4000   32.0020   24.0920 O.2   219  PHE219     -0.2867
    108  CB        14.0590   29.3130   23.7050 C.3   219  PHE219      0.0534
    109  CG        14.1700   27.7880   23.6470 C.ar  219  PHE219     -0.0203
    110  CD1       14.3080   27.0130   24.7980 C.ar  219  PHE219     -0.0042
    111  CD2       14.1580   27.1470   22.3950 C.ar  219  PHE219     -0.0042
    112  CE1       14.4280   25.5790   24.7140 C.ar  219  PHE219     -0.0003
    113  CE2       14.2740   25.7370   22.2930 C.ar  219  PHE219     -0.0003
    114  CZ        14.4150   24.9560   23.4530 C.ar  219  PHE219     -0.0000
    115  N          6.1480   20.2660   22.6330 N.3   231  GLY231     -0.1225
    116  CA         5.9410   19.2390   21.6570 C.3   231  GLY231      0.1811
    117  C          5.2910   18.0760   22.3620 C.2   231  GLY231      0.2280
    118  O          5.5420   17.8450   23.5590 O.2   231  GLY231     -0.2866
    119  N          7.3520   17.5650   13.6360 N.3   269  VAL269     -0.1245
    120  CA         8.7840   17.3780   13.8630 C.3   269  VAL269      0.1561
    121  C          9.0700   15.8750   13.8660 C.2   269  VAL269      0.2260
    122  O          8.6530   15.1920   14.7860 O.2   269  VAL269     -0.2867
    123  CB         9.2090   17.9180   15.2640 C.3   269  VAL269      0.0252
    124  CG1       10.7110   17.7610   15.4600 C.3   269  VAL269      0.0019
    125  CG2        8.8310   19.3530   15.4090 C.3   269  VAL269      0.0019
    126  N         10.9520   12.4240   14.6770 N.3   271  THR271     -0.1218
    127  CA        11.7730   12.1390   15.8680 C.3   271  THR271      0.1862
    128  C         12.2430   10.6960   15.7910 C.2   271  THR271      0.2287
    129  O         11.8600    9.8720   16.6240 O.2   271  THR271     -0.2866
    130  CB        11.0210   12.3900   17.2420 C.3   271  THR271      0.1770
    131  OG1        9.8430   11.5810   17.3110 O.3   271  THR271     -0.2211
    132  CG2       10.5940   13.8450   17.4110 C.3   271  THR271      0.0375
    133  N         16.2670   12.6690   17.7080 N.3   295  PRO295     -0.2102
    134  CA        15.0190   12.0890   18.2170 C.3   295  PRO295      0.1504
    135  C         14.7300   12.3350   19.7120 C.2   295  PRO295      0.2576
    136  O         13.5690   12.2000   20.1290 O.2   295  PRO295     -0.2718
    137  CB        15.2340   10.5810   17.9900 C.3   295  PRO295      0.0282
    138  CG        16.1950   10.5280   16.8410 C.3   295  PRO295      0.0208
    139  CD        17.1660   11.6180   17.1990 C.3   295  PRO295      0.0893
    140  N         15.7640   12.6440   20.4930 N.am  296  VAL296     -0.1966
    141  CA        15.5830   12.8990   21.9470 C.3   296  VAL296      0.1727
    142  C         15.1920   14.3470   22.2710 C.2   296  VAL296      0.2616
    143  O         14.2470   14.5780   23.0570 O.2   296  VAL296     -0.2715
    144  CB        16.7740   12.4390   22.7930 C.3   296  VAL296      0.0290
    145  CG1       16.6560   12.9410   24.2430 C.3   296  VAL296      0.0023
    146  CG2       16.8220   10.9130   22.8260 C.3   296  VAL296      0.0023
    147  N         15.8770   15.3170   21.6770 N.am  297  HIS297     -0.1959
    148  CA        15.5390   16.7180   21.9560 C.3   297  HIS297      0.1787
    149  C         14.7890   17.4690   20.8490 C.2   297  HIS297      0.2621
    150  O         14.2740   18.5580   21.0940 O.2   297  HIS297     -0.2715
    151  CB        16.7430   17.5140   22.5030 C.3   297  HIS297      0.0785
    152  CG        17.8500   17.7300   21.5250 C.ar  297  HIS297      0.0821
    153  ND1       19.1750   17.5080   21.8430 N.ar  297  HIS297     -0.2267
    154  CD2       17.8390   18.1690   20.2450 C.ar  297  HIS297      0.1154
    155  CE1       19.9320   17.8000   20.7980 C.ar  297  HIS297      0.1986
    156  NE2       19.1460   18.2060   19.8160 N.ar  297  HIS297     -0.2212
    157  N         14.7150   16.9000   19.6460 N.am  298  GLY298     -0.1940
    158  CA        13.8570   17.4710   18.5850 C.3   298  GLY298      0.2014
    159  C         14.5510   18.5930   17.8250 C.2   298  GLY298      0.2639
    160  O         13.9490   19.2470   16.9860 O.2   298  GLY298     -0.2714
    161  N         15.8310   18.7930   18.1130 N.am  299  GLY299     -0.1954
    162  CA        16.6420   19.7990   17.4300 C.3   299  GLY299      0.1869
    163  C         16.9630   19.3130   16.0270 C.2   299  GLY299      0.2309
    164  O         17.4770   18.2100   15.8580 O.2   299  GLY299     -0.2863
    165  N         14.8520    7.5930   23.0130 N.3   351  ARG351     -0.1245
    166  CA        13.5820    8.3460   23.0520 C.3   351  ARG351      0.1563
    167  C         12.3900    7.4600   23.4050 C.2   351  ARG351      0.2260
    168  O         11.5110    7.8580   24.1770 O.2   351  ARG351     -0.2867
    169  CB        13.3120    9.0310   21.6950 C.3   351  ARG351      0.0307
    170  CG        11.8210    9.0390   21.3450 C.3   351  ARG351      0.0489
    171  CD        11.5570    9.4080   19.9620 C.3   351  ARG351      0.2205
    172  NE        11.4980    8.2770   19.0310 N.pl3 351  ARG351     -0.0865
    173  CZ        10.3830    7.7300   18.5680 C.cat 351  ARG351      0.5346
    174  NH1        9.1910    8.1110   19.0220 N.pl3 351  ARG351      0.1354
    175  NH2       10.4690    6.7850   17.6490 N.pl3 351  ARG351      0.1354
    176  N         10.0580    8.2660   26.6270 N.3   355  GLN355     -0.1245
    177  CA         8.6480    8.6030   26.4230 C.3   355  GLN355      0.1566
    178  C          7.7130    7.7170   27.2300 C.2   355  GLN355      0.2260
    179  O          6.5650    8.0890   27.4780 O.2   355  GLN355     -0.2867
    180  CB         8.2820    8.5290   24.9280 C.3   355  GLN355      0.0367
    181  CG         8.8600    9.6710   24.1210 C.3   355  GLN355      0.0905
    182  CD         8.5760    9.5540   22.6130 C.2   355  GLN355      0.2608
    183  OE1        8.6180    8.4670   22.0510 O.2   355  GLN355     -0.2717
    184  NE2        8.3010   10.6850   21.9670 N.am  355  GLN355     -0.0878
@<TRIPOS>BOND
     1    26    25    2
     2   119   120    1
     3   120   121    1
     4   120   123    1
     5   121   122    2
     6    25    24    1
     7   126   127    1
     8    27    24    1
     9    27    28    1
    10    24    23    1
    11   123   125    1
    12   123   124    1
    13    15    14    1
    14    30    28   ar
    15    30    32   ar
    16    16    14    1
    17    28    29   ar
    18    44    43    2
    19   128   127    1
    20   128   129    2
    21   164   163    2
    22   127   130    1
    23   163   162    1
    24    14    11    1
    25    32    31   ar
    26    29    31   ar
    27    41    42    1
    28    52    51    2
    29    43    42    1
    30   138   139    1
    31   138   137    1
    32   160   159    2
    33   139   133    1
    34   130   131    1
    35   130   132    1
    36    20    19    2
    37    49    50    1
    38   162   161    1
    39    42    45    1
    40     1     2    1
    41    11    10    1
    42    11    12    1
    43   175   173    1
    44   133   134    1
    45   159   161   am
    46   159   158    1
    47    51    50    1
    48   137   134    1
    49    53    50    1
    50   134   135    1
    51     8     7    2
    52    10     7   am
    53    12    17   am
    54    12    13    2
    55     5     6    1
    56    45    46    1
    57    19    18    1
    58     7     6    1
    59   173   174    1
    60   173   172    2
    61   158   157    1
    62     3     2    1
    63     3     4    2
    64    17    18    1
    65   172   171    1
    66     6     9    1
    67    18    21    1
    68    21    22    1
    69    46    47   ar
    70    46    48   ar
    71   157   149   am
    72   135   136    2
    73   135   140   am
    74   156   154   ar
    75   156   155   ar
    76   171   170    1
    77   154   152   ar
    78   140   141    1
    79   103   101   ar
    80   103   102   ar
    81   155   153   ar
    82   149   150    2
    83   149   148    1
    84   101    99   ar
    85   170   169    1
    86   152   153   ar
    87   152   151    1
    88   116   117    1
    89   116   115    1
    90   147   148    1
    91   147   142   am
    92   169   166    1
    93   102   100   ar
    94   141   142    1
    95   141   144    1
    96   148   151    1
    97   184   182   am
    98   183   182    2
    99    99    98   ar
   100    99    97   ar
   101   142   143    2
   102   113   111   ar
   103   113   114   ar
   104   117   118    2
   105   111   109   ar
   106    98    96   ar
   107   182   181    1
   108   144   146    1
   109   144   145    1
   110   100    97   ar
   111    89    88    1
   112   165   166    1
   113   166   167    1
   114    97    95   ar
   115    73    72    2
   116   167   168    2
   117   114   112   ar
   118   109   108    1
   119   109   110   ar
   120    96    95   ar
   121   108   105    1
   122    88    87   ar
   123    88    86   ar
   124   107   106    2
   125    95    94    1
   126   181   180    1
   127    72    71    1
   128    72    74   am
   129    87    85   ar
   130    60    59    1
   131    75    74    1
   132    75    76    1
   133    86    84   ar
   134   112   110   ar
   135    71    70    1
   136    61    59    1
   137   180   177    1
   138   106   105    1
   139   105   104    1
   140    81    80    2
   141    85    83   ar
   142    59    58    1
   143    94    91    1
   144    78    76   am
   145    78    79    1
   146    76    77    2
   147    84    83   ar
   148    83    82    1
   149    69    67    1
   150    80    79    1
   151   177   176    1
   152   177   178    1
   153    93    92    2
   154    40    38    1
   155    58    55    1
   156    79    82    1
   157    90    91    1
   158    91    92    1
   159    38    37    1
   160    67    66    1
   161   178   179    2
   162    55    54    1
   163    55    56    1
   164    68    66    1
   165    66    63    1
   166    37    39    1
   167    37    34    1
   168    56    57    2
   169    63    62    1
   170    63    64    1
   171    33    34    1
   172    34    35    1
   173    64    65    2
   174    35    36    2
