@<TRIPOS>MOLECULE
tmp/3atrA01.pdb
 141 136 0 0 0
SMALL
GASTEIGER

@<TRIPOS>ATOM
      1  N         11.6390   26.4420   17.8130 N.3    48  GLY48      -0.1225
      2  CA        12.1450   26.9880   19.0620 C.3    48  GLY48       0.1811
      3  C         13.3220   27.9130   18.7900 C.2    48  GLY48       0.2280
      4  O         13.6650   28.7370   19.6390 O.2    48  GLY48      -0.2866
      5  N         16.5530   27.3510   18.5820 N.3    50  ALA50      -0.1231
      6  CA        17.7850   27.0810   19.3420 C.3    50  ALA50       0.1694
      7  C         18.6940   26.1010   18.6270 C.2    50  ALA50       0.2592
      8  O         18.2710   24.9780   18.2900 O.2    50  ALA50      -0.2718
      9  CB        17.4490   26.5500   20.7120 C.3    50  ALA50       0.0304
     10  N         19.9490   26.5030   18.4450 N.am   51  VAL51      -0.1966
     11  CA        20.9130   25.6660   17.7240 C.3    51  VAL51       0.1727
     12  C         22.2560   25.7400   18.4470 C.2    51  VAL51       0.2616
     13  O         22.7490   26.8180   18.7400 O.2    51  VAL51      -0.2715
     14  CB        21.0840   26.0870   16.2290 C.3    51  VAL51       0.0290
     15  CG1       21.9980   25.0550   15.4680 C.3    51  VAL51       0.0023
     16  CG2       19.7410   26.2060   15.5190 C.3    51  VAL51       0.0023
     17  N         22.8880   24.5980   18.6640 N.am   52  SER52      -0.1950
     18  CA        24.1770   24.6190   19.3610 C.3    52  SER52       0.1924
     19  C         25.2700   25.2560   18.5270 C.2    52  SER52       0.2314
     20  O         25.2860   25.1480   17.3040 O.2    52  SER52      -0.2863
     21  CB        24.6320   23.1860   19.7630 C.3    52  SER52       0.2116
     22  OG        25.1430   22.5410   18.6250 O.3    52  SER52      -0.2180
     23  N         23.2170   31.6420   24.2100 N.3    73  ILE73      -0.1245
     24  CA        22.8370   30.6320   25.2000 C.3    73  ILE73       0.1561
     25  C         24.0950   30.0060   25.7880 C.2    73  ILE73       0.2260
     26  O         24.9980   29.6420   25.0370 O.2    73  ILE73      -0.2867
     27  CB        21.9630   29.5310   24.5310 C.3    73  ILE73       0.0252
     28  CG1       20.6610   30.1440   23.9610 C.3    73  ILE73       0.0019
     29  CG2       21.6530   28.3720   25.4620 C.3    73  ILE73       0.0019
     30  CD1       19.8060   30.9080   24.9780 C.3    73  ILE73       0.0001
     31  N         23.6770   27.4830   28.3490 N.3    75  GLY75      -0.1210
     32  CA        23.2680   26.1390   28.7490 C.3    75  GLY75       0.1956
     33  C         21.7930   25.9020   28.8440 C.2    75  GLY75       0.2611
     34  O         20.9910   26.7230   28.3750 O.2    75  GLY75      -0.2717
     35  N         21.4340   24.7490   29.4210 N.am   76  ILE76      -0.1979
     36  CA        20.0550   24.3190   29.5330 C.3    76  ILE76       0.1595
     37  C         19.8020   23.8900   30.9600 C.2    76  ILE76       0.2287
     38  O         20.6320   23.1770   31.5680 O.2    76  ILE76      -0.2864
     39  CB        19.7760   23.1160   28.5910 C.3    76  ILE76       0.0276
     40  CG1       20.1540   23.4830   27.1450 C.3    76  ILE76       0.0022
     41  CG2       18.3380   22.6400   28.7360 C.3    76  ILE76       0.0022
     42  CD1       20.0840   22.3280   26.1440 C.3    76  ILE76       0.0001
     43  N         26.8320   24.6520   28.0760 N.3    91  GLY91      -0.1210
     44  CA        27.1940   24.5010   26.6690 C.3    91  GLY91       0.1956
     45  C         26.6830   25.6920   25.8720 C.2    91  GLY91       0.2612
     46  O         25.6060   26.2470   26.1890 O.2    91  GLY91      -0.2717
     47  N         27.4360   26.0800   24.8470 N.am   92  GLU92      -0.1965
     48  CA        27.1480   27.2890   24.0880 C.3    92  GLU92       0.1733
     49  C         26.2130   27.0410   22.9150 C.2    92  GLU92       0.2617
     50  O         26.2830   26.0080   22.2390 O.2    92  GLU92      -0.2715
     51  CB        28.4290   27.9350   23.5850 C.3    92  GLU92       0.0429
     52  CG        29.2670   28.5470   24.7010 C.3    92  GLU92       0.1163
     53  CD        30.5670   29.0810   24.1850 C.2    92  GLU92       0.3649
     54  OE1       31.5920   28.3820   24.3490 O.co2  92  GLU92      -0.2457
     55  OE2       30.5720   30.1860   23.5990 O.co2  92  GLU92      -0.2457
     56  N         25.3560   28.0190   22.6670 N.am   93  GLY93      -0.1940
     57  CA        24.4440   27.9320   21.5360 C.3    93  GLY93       0.2014
     58  C         23.8640   29.2750   21.2180 C.2    93  GLY93       0.2638
     59  O         24.2370   30.2990   21.8090 O.2    93  GLY93      -0.2714
     60  N         22.9380   29.2680   20.2720 N.am   94  PHE94      -0.1973
     61  CA        22.3820   30.5020   19.7850 C.3    94  PHE94       0.1639
     62  C         20.8680   30.3630   19.7560 C.2    94  PHE94       0.2290
     63  O         20.3590   29.3550   19.3050 O.2    94  PHE94      -0.2864
     64  CB        22.8800   30.7500   18.3620 C.3    94  PHE94       0.0560
     65  CG        24.3760   30.7300   18.2380 C.ar   94  PHE94      -0.0200
     66  CD1       25.1390   31.7680   18.7950 C.ar   94  PHE94      -0.0042
     67  CD2       25.0280   29.6870   17.5760 C.ar   94  PHE94      -0.0042
     68  CE1       26.5340   31.7890   18.6650 C.ar   94  PHE94      -0.0003
     69  CE2       26.4210   29.6740   17.4610 C.ar   94  PHE94      -0.0003
     70  CZ        27.1790   30.7040   18.0040 C.ar   94  PHE94      -0.0000
     71  N         18.3370   28.0790   28.4100 N.3   202  LEU202     -0.1245
     72  CA        17.0790   27.4660   27.9560 C.3   202  LEU202      0.1561
     73  C         16.5270   26.6320   29.1110 C.2   202  LEU202      0.2260
     74  O         17.2920   26.1960   29.9650 O.2   202  LEU202     -0.2867
     75  CB        17.3380   26.5460   26.7620 C.3   202  LEU202      0.0270
     76  CG        18.0890   27.1550   25.5550 C.3   202  LEU202      0.0019
     77  CD1       18.3480   26.1250   24.4310 C.3   202  LEU202      0.0001
     78  CD2       17.3240   28.4190   25.0120 C.3   202  LEU202      0.0001
     79  N         13.9580   23.3150   29.8460 N.3   204  ILE204     -0.1245
     80  CA        13.2080   22.2200   29.2300 C.3   204  ILE204      0.1561
     81  C         12.5620   21.4550   30.3550 C.2   204  ILE204      0.2260
     82  O         13.2330   21.0950   31.3240 O.2   204  ILE204     -0.2867
     83  CB        14.1490   21.3150   28.4210 C.3   204  ILE204      0.0252
     84  CG1       14.5080   21.9840   27.1110 C.3   204  ILE204      0.0019
     85  CG2       13.5320   19.9140   28.1930 C.3   204  ILE204      0.0019
     86  CD1       15.5400   21.2510   26.2960 C.3   204  ILE204      0.0001
     87  N          8.1190   17.4060   25.2760 N.3   215  TYR215     -0.1241
     88  CA         8.4330   18.1910   26.4480 C.3   215  TYR215      0.1605
     89  C          7.9550   19.6210   26.2400 C.2   215  TYR215      0.2264
     90  O          7.6220   20.0180   25.1050 O.2   215  TYR215     -0.2867
     91  CB         9.9520   18.1840   26.7390 C.3   215  TYR215      0.0534
     92  CG        10.8490   18.6880   25.6180 C.ar  215  TYR215     -0.0201
     93  CD1       11.1130   20.0610   25.4590 C.ar  215  TYR215     -0.0009
     94  CD2       11.5080   17.7870   24.7700 C.ar  215  TYR215     -0.0009
     95  CE1       11.9950   20.5400   24.4510 C.ar  215  TYR215      0.0417
     96  CE2       12.3900   18.2700   23.7390 C.ar  215  TYR215      0.0417
     97  CZ        12.6190   19.6410   23.6020 C.ar  215  TYR215      0.1957
     98  OH        13.4540   20.1250   22.6050 O.3   215  TYR215     -0.2866
     99  N          9.0460   23.7390   26.6810 N.3   217  TRP217     -0.1241
    100  CA        10.2530   24.5390   26.7280 C.3   217  TRP217      0.1605
    101  C          9.9720   26.0330   26.9230 C.2   217  TRP217      0.2264
    102  O          8.8790   26.5220   26.6480 O.2   217  TRP217     -0.2867
    103  CB        11.1030   24.3270   25.4700 C.3   217  TRP217      0.0550
    104  CG        10.5460   24.9090   24.2220 C.ar  217  TRP217      0.0003
    105  CD1       10.6890   26.1950   23.7510 C.ar  217  TRP217      0.0946
    106  CD2        9.8330   24.1850   23.2040 C.ar  217  TRP217      0.0152
    107  NE1       10.0810   26.3280   22.5130 N.ar  217  TRP217     -0.2442
    108  CE2        9.5310   25.1160   22.1560 C.ar  217  TRP217      0.0810
    109  CE3        9.4310   22.8500   23.0680 C.ar  217  TRP217      0.0012
    110  CZ2        8.8540   24.7400   20.9730 C.ar  217  TRP217      0.0191
    111  CZ3        8.7100   22.4730   21.8850 C.ar  217  TRP217      0.0001
    112  CH2        8.4240   23.4420   20.8650 C.ar  217  TRP217      0.0015
    113  N         12.3940   29.1960   25.9970 N.3   219  PHE219     -0.1241
    114  CA        13.6930   29.4970   25.3830 C.3   219  PHE219      0.1605
    115  C         13.8200   31.0220   25.2630 C.2   219  PHE219      0.2264
    116  O         13.2370   31.5840   24.3490 O.2   219  PHE219     -0.2867
    117  CB        13.7790   28.9400   23.9570 C.3   219  PHE219      0.0534
    118  CG        13.9660   27.4330   23.8460 C.ar  219  PHE219     -0.0203
    119  CD1       14.1290   26.6230   24.9680 C.ar  219  PHE219     -0.0042
    120  CD2       14.0580   26.8630   22.5490 C.ar  219  PHE219     -0.0042
    121  CE1       14.3480   25.2160   24.8220 C.ar  219  PHE219     -0.0003
    122  CE2       14.2600   25.4640   22.3770 C.ar  219  PHE219     -0.0003
    123  CZ        14.4200   24.6600   23.5110 C.ar  219  PHE219     -0.0000
    124  N         15.5170   15.0990   21.5010 N.3   297  HIS297     -0.1226
    125  CA        15.1660   16.4910   21.7980 C.3   297  HIS297      0.1752
    126  C         14.4990   17.2870   20.6410 C.2   297  HIS297      0.2597
    127  O         14.1330   18.4470   20.8310 O.2   297  HIS297     -0.2718
    128  CB        16.3580   17.2530   22.3950 C.3   297  HIS297      0.0759
    129  CG        17.5690   17.3430   21.5160 C.ar  297  HIS297      0.0818
    130  ND1       17.5220   17.8200   20.2160 N.ar  297  HIS297     -0.2268
    131  CD2       18.8750   17.0510   21.7590 C.ar  297  HIS297      0.1154
    132  CE1       18.7420   17.8470   19.7090 C.ar  297  HIS297      0.1986
    133  NE2       19.5850   17.3790   20.6240 N.ar  297  HIS297     -0.2212
    134  N         14.3720   16.6950   19.4570 N.am  298  GLY298     -0.1942
    135  CA        13.5980   17.2980   18.3950 C.3   298  GLY298      0.2014
    136  C         14.3720   18.4050   17.6640 C.2   298  GLY298      0.2639
    137  O         13.8140   19.0750   16.8390 O.2   298  GLY298     -0.2714
    138  N         15.6440   18.5980   17.9990 N.am  299  GLY299     -0.1954
    139  CA        16.5090   19.5760   17.3100 C.3   299  GLY299      0.1869
    140  C         16.8530   19.0830   15.9110 C.2   299  GLY299      0.2309
    141  O         17.4400   18.0080   15.7410 O.2   299  GLY299     -0.2863
@<TRIPOS>BOND
     1    15    14    1
     2    16    14    1
     3   141   140    2
     4   140   139    1
     5    14    11    1
     6   137   136    2
     7    20    19    2
     8   139   138    1
     9    69    67   ar
    10    69    70   ar
    11    67    65   ar
    12   136   138   am
    13   136   135    1
    14    11    10    1
    15    11    12    1
    16     1     2    1
    17    70    68   ar
    18    65    64    1
    19    65    66   ar
    20     8     7    2
    21    64    61    1
    22   135   134    1
    23    10     7   am
    24    12    17   am
    25    12    13    2
    26    19    18    1
    27     5     6    1
    28    22    21    1
    29     7     6    1
    30    17    18    1
    31    68    66   ar
    32     3     2    1
    33     3     4    2
    34    63    62    2
    35     6     9    1
    36    18    21    1
    37   134   126   am
    38   132   130   ar
    39   132   133   ar
    40    62    61    1
    41    61    60    1
    42   130   129   ar
    43    60    58   am
    44   133   131   ar
    45   126   127    2
    46   126   125    1
    47   112   110   ar
    48   112   111   ar
    49   110   108   ar
    50    58    57    1
    51    58    59    2
    52   124   125    1
    53   129   131   ar
    54   129   128    1
    55    57    56    1
    56   125   128    1
    57   111   109   ar
    58   108   107   ar
    59   108   106   ar
    60    50    49    2
    61   122   120   ar
    62   122   123   ar
    63   107   105   ar
    64   120   118   ar
    65    98    97    1
    66    56    49   am
    67    49    48    1
    68   109   106   ar
    69   106   104   ar
    70   123   121   ar
    71    51    48    1
    72    51    52    1
    73    55    53   ar
    74    97    96   ar
    75    97    95   ar
    76    96    94   ar
    77   105   104   ar
    78   118   117    1
    79   118   119   ar
    80   117   114    1
    81    28    27    1
    82    28    30    1
    83    48    47    1
    84    53    54   ar
    85    53    52    1
    86    23    24    1
    87   104   103    1
    88   116   115    2
    89    77    76    1
    90    95    93   ar
    91    27    24    1
    92    27    29    1
    93    94    92   ar
    94   121   119   ar
    95    47    45   am
    96    78    76    1
    97    26    25    2
    98    90    89    2
    99    24    25    1
   100   115   114    1
   101    87    88    1
   102   114   113    1
   103    93    92   ar
   104   103   100    1
   105    76    75    1
   106    92    91    1
   107    45    46    2
   108    45    44    1
   109    42    40    1
   110    89    88    1
   111    86    84    1
   112    88    91    1
   113   102   101    2
   114    44    43    1
   115    99   100    1
   116   100   101    1
   117    75    72    1
   118    84    83    1
   119    40    39    1
   120    72    71    1
   121    72    73    1
   122    85    83    1
   123    31    32    1
   124    34    33    2
   125    83    80    1
   126    39    41    1
   127    39    36    1
   128    32    33    1
   129    33    35   am
   130    73    74    2
   131    80    79    1
   132    80    81    1
   133    35    36    1
   134    36    37    1
   135    81    82    2
   136    37    38    2
