@<TRIPOS>MOLECULE
tmp/3atrA02.pdb
 101 93 0 0 0
SMALL
GASTEIGER

@<TRIPOS>ATOM
      1  N         22.8880   24.5980   18.6640 N.3    52  SER52      -0.1217
      2  CA        24.1770   24.6190   19.3610 C.3    52  SER52       0.1889
      3  C         25.2700   25.2560   18.5270 C.2    52  SER52       0.2288
      4  O         25.2860   25.1480   17.3040 O.2    52  SER52      -0.2866
      5  CB        24.6320   23.1860   19.7630 C.3    52  SER52       0.2089
      6  OG        25.1430   22.5410   18.6250 O.3    52  SER52      -0.2183
      7  N         28.1820   24.0230   18.6760 N.3    54  ALA54      -0.1231
      8  CA        28.9630   22.8460   18.1950 C.3    54  ALA54       0.1694
      9  C         28.5330   22.4310   16.7650 C.2    54  ALA54       0.2592
     10  O         29.3800   22.0080   15.9680 O.2    54  ALA54      -0.2718
     11  CB        28.8040   21.6820   19.1340 C.3    54  ALA54       0.0304
     12  N         27.2350   22.5730   16.4390 N.am   55  HIS55      -0.1976
     13  CA        26.7540   22.2760   15.0860 C.3    55  HIS55       0.1656
     14  C         27.3690   23.1710   14.0390 C.2    55  HIS55       0.2291
     15  O         27.6340   22.7230   12.9310 O.2    55  HIS55      -0.2864
     16  CB        25.2160   22.3230   14.9540 C.3    55  HIS55       0.0771
     17  CG        24.5720   21.0620   15.3960 C.ar   55  HIS55       0.0820
     18  ND1       24.8900   19.8480   14.8320 N.ar   55  HIS55      -0.2267
     19  CD2       23.7150   20.8010   16.4070 C.ar   55  HIS55       0.1154
     20  CE1       24.1940   18.8950   15.4350 C.ar   55  HIS55       0.1986
     21  NE2       23.4760   19.4480   16.3970 N.ar   55  HIS55      -0.2212
     22  N         21.4340   24.7490   29.4210 N.3    76  ILE76      -0.1245
     23  CA        20.0550   24.3190   29.5330 C.3    76  ILE76       0.1561
     24  C         19.8020   23.8900   30.9600 C.2    76  ILE76       0.2260
     25  O         20.6320   23.1770   31.5680 O.2    76  ILE76      -0.2867
     26  CB        19.7760   23.1160   28.5910 C.3    76  ILE76       0.0252
     27  CG1       20.1540   23.4830   27.1450 C.3    76  ILE76       0.0019
     28  CG2       18.3380   22.6400   28.7360 C.3    76  ILE76       0.0019
     29  CD1       20.0840   22.3280   26.1440 C.3    76  ILE76       0.0001
     30  N         17.0050   15.1580   15.5970 N.3   294  ASN294     -0.1240
     31  CA        17.3630   14.3890   16.7670 C.3   294  ASN294      0.1653
     32  C         16.0920   13.7830   17.3980 C.2   294  ASN294      0.2266
     33  O         15.1520   14.5400   17.7270 O.2   294  ASN294     -0.2867
     34  CB        17.9870   15.3620   17.7920 C.3   294  ASN294      0.1155
     35  CG        18.5540   14.6370   18.9600 C.2   294  ASN294      0.2627
     36  OD1       17.8100   14.0100   19.7530 O.2   294  ASN294     -0.2716
     37  ND2       19.8780   14.6370   19.0600 N.am  294  ASN294     -0.0877
     38  N         15.5170   15.0990   21.5010 N.3   297  HIS297     -0.1241
     39  CA        15.1660   16.4910   21.7980 C.3   297  HIS297      0.1621
     40  C         14.4990   17.2870   20.6410 C.2   297  HIS297      0.2264
     41  O         14.1330   18.4470   20.8310 O.2   297  HIS297     -0.2867
     42  CB        16.3580   17.2530   22.3950 C.3   297  HIS297      0.0745
     43  CG        17.5690   17.3430   21.5160 C.ar  297  HIS297      0.0817
     44  ND1       17.5220   17.8200   20.2160 N.ar  297  HIS297     -0.2268
     45  CD2       18.8750   17.0510   21.7590 C.ar  297  HIS297      0.1154
     46  CE1       18.7420   17.8470   19.7090 C.ar  297  HIS297      0.1986
     47  NE2       19.5850   17.3790   20.6240 N.ar  297  HIS297     -0.2212
     48  N         15.6440   18.5980   17.9990 N.3   299  GLY299     -0.1225
     49  CA        16.5090   19.5760   17.3100 C.3   299  GLY299      0.1811
     50  C         16.8530   19.0830   15.9110 C.2   299  GLY299      0.2280
     51  O         17.4400   18.0080   15.7410 O.2   299  GLY299     -0.2866
     52  N         21.3300   19.3250   12.4350 N.3   303  SER303     -0.1217
     53  CA        21.4140   18.1520   11.5900 C.3   303  SER303      0.1889
     54  C         20.9260   18.4520   10.1630 C.2   303  SER303      0.2288
     55  O         21.3910   17.7710    9.2190 O.2   303  SER303     -0.2866
     56  CB        20.6570   16.9880   12.2210 C.3   303  SER303      0.2089
     57  OG        19.2750   17.3520   12.4920 O.3   303  SER303     -0.2183
     58  N         26.0170   11.9110   11.7920 N.3   340  TYR340     -0.1241
     59  CA        24.8140   12.1520   12.6060 C.3   340  TYR340      0.1605
     60  C         23.7880   11.0330   12.5910 C.2   340  TYR340      0.2264
     61  O         23.1320   10.7970   13.6270 O.2   340  TYR340     -0.2867
     62  CB        24.0960   13.4510   12.2000 C.3   340  TYR340      0.0534
     63  CG        23.2700   14.0570   13.3300 C.ar  340  TYR340     -0.0201
     64  CD1       23.8620   14.9200   14.2500 C.ar  340  TYR340     -0.0009
     65  CD2       21.8880   13.7890   13.4510 C.ar  340  TYR340     -0.0009
     66  CE1       23.1180   15.5170   15.2840 C.ar  340  TYR340      0.0417
     67  CE2       21.1400   14.3530   14.5220 C.ar  340  TYR340      0.0417
     68  CZ        21.7700   15.2210   15.4210 C.ar  340  TYR340      0.1957
     69  OH        21.0700   15.8100   16.4500 O.3   340  TYR340     -0.2866
     70  N         24.1100    8.1390   15.1920 N.3   343  LYS343     -0.1245
     71  CA        23.6610    8.7300   16.4740 C.3   343  LYS343      0.1561
     72  C         22.1260    8.8280   16.5580 C.2   343  LYS343      0.2260
     73  O         21.5200    8.4520   17.5920 O.2   343  LYS343     -0.2867
     74  CB        24.3620   10.0980   16.7070 C.3   343  LYS343      0.0271
     75  CG        23.6220   11.0040   17.6520 C.3   343  LYS343      0.0035
     76  CD        24.4360   12.3070   17.8300 C.3   343  LYS343      0.0206
     77  CE        23.6110   13.3710   18.4880 C.3   343  LYS343      0.1093
     78  NZ        24.3910   14.6450   18.6640 N.3   343  LYS343     -0.1314
     79  N         25.0850   14.6510   28.7710 N.3   377  LEU377     -0.1245
     80  CA        25.7030   15.4660   27.7180 C.3   377  LEU377      0.1561
     81  C         26.4160   14.5980   26.6720 C.2   377  LEU377      0.2260
     82  O         26.2150   14.7800   25.4630 O.2   377  LEU377     -0.2867
     83  CB        26.6620   16.5110   28.3210 C.3   377  LEU377      0.0270
     84  CG        27.2530   17.5920   27.3990 C.3   377  LEU377      0.0019
     85  CD1       26.1660   18.4350   26.7340 C.3   377  LEU377      0.0001
     86  CD2       28.2690   18.4920   28.1240 C.3   377  LEU377      0.0001
     87  N         23.7750   12.7170   24.4840 N.3   380  SER380     -0.1202
     88  CA        23.0190   13.5350   23.5180 C.3   380  SER380      0.2020
     89  C         23.8530   14.0120   22.3330 C.2   380  SER380      0.2618
     90  O         23.2950   14.3680   21.2960 O.2   380  SER380     -0.2717
     91  CB        22.3510   14.7440   24.1920 C.3   380  SER380      0.2103
     92  OG        20.9930   14.4780   24.5070 O.3   380  SER380     -0.2182
     93  N         25.1760   14.0210   22.4990 N.am  381  GLU381     -0.1979
     94  CA        26.0860   14.5640   21.4870 C.3   381  GLU381      0.1602
     95  C         26.7580   13.4760   20.6390 C.2   381  GLU381      0.2287
     96  O         27.1950   13.7450   19.5100 O.2   381  GLU381     -0.2864
     97  CB        27.1340   15.4910   22.1200 C.3   381  GLU381      0.0415
     98  CG        26.5740   16.8040   22.6760 C.3   381  GLU381      0.1163
     99  CD        27.6690   17.7860   23.0800 C.2   381  GLU381      0.3649
    100  OE1       28.2110   17.6560   24.2010 O.co2 381  GLU381     -0.2457
    101  OE2       27.9860   18.6900   22.2740 O.co2 381  GLU381     -0.2457
@<TRIPOS>BOND
     1    55    54    2
     2    54    53    1
     3    53    56    1
     4    53    52    1
     5    58    59    1
     6    62    59    1
     7    62    63    1
     8    56    57    1
     9    60    59    1
    10    60    61    2
    11    15    14    2
    12    63    65   ar
    13    63    64   ar
    14    65    67   ar
    15    14    13    1
    16    64    66   ar
    17    67    68   ar
    18    18    17   ar
    19    18    20   ar
    20    16    13    1
    21    16    17    1
    22    13    12    1
    23    70    71    1
    24    66    68   ar
    25    17    19   ar
    26    68    69    1
    27    20    21   ar
    28    30    31    1
    29    51    50    2
    30    50    49    1
    31    10     9    2
    32    21    19   ar
    33    12     9   am
    34    71    72    1
    35    71    74    1
    36    72    73    2
    37    74    75    1
    38     9     8    1
    39    31    32    1
    40    31    34    1
    41     4     3    2
    42    49    48    1
    43    32    33    2
    44    75    76    1
    45    34    35    1
    46    76    77    1
    47     8     7    1
    48     8    11    1
    49    77    78    1
    50     3     2    1
    51     6     5    1
    52     1     2    1
    53    35    37   am
    54    35    36    2
    55     2     5    1
    56    96    95    2
    57    46    44   ar
    58    46    47   ar
    59    44    43   ar
    60    47    45   ar
    61    95    94    1
    62    40    41    2
    63    40    39    1
    64    90    89    2
    65    94    97    1
    66    94    93    1
    67    38    39    1
    68    43    45   ar
    69    43    42    1
    70    39    42    1
    71    97    98    1
    72   101    99   ar
    73    89    93   am
    74    89    88    1
    75    98    99    1
    76    99   100   ar
    77    88    91    1
    78    88    87    1
    79    91    92    1
    80    82    81    2
    81    29    27    1
    82    81    80    1
    83    85    84    1
    84    27    26    1
    85    84    86    1
    86    84    83    1
    87    80    83    1
    88    80    79    1
    89    26    28    1
    90    26    23    1
    91    22    23    1
    92    23    24    1
    93    24    25    2
