@<TRIPOS>MOLECULE
tmp/3attA00.pdb
 169 157 0 0 0
SMALL
GASTEIGER

@<TRIPOS>ATOM
      1  N         -3.7020   36.0190   73.8280 N.3    35  SER35      -0.1202
      2  CA        -2.5880   35.1810   73.5660 C.3    35  SER35       0.2020
      3  C         -3.0190   33.7270   73.6230 C.2    35  SER35       0.2619
      4  O         -4.0010   33.3790   74.2930 O.2    35  SER35      -0.2717
      5  CB        -1.4910   35.4440   74.5960 C.3    35  SER35       0.2103
      6  OG        -0.3760   34.6680   74.1860 O.3    35  SER35      -0.2182
      7  N         -2.3170   32.8820   72.8660 N.am   36  GLU36      -0.1965
      8  CA        -2.4940   31.4400   72.9930 C.3    36  GLU36       0.1733
      9  C         -1.7070   30.8840   74.1850 C.2    36  GLU36       0.2617
     10  O         -2.0490   29.8140   74.6990 O.2    36  GLU36      -0.2715
     11  CB        -2.1040   30.7140   71.7010 C.3    36  GLU36       0.0429
     12  CG        -3.2320   30.7760   70.6770 C.3    36  GLU36       0.1163
     13  CD        -2.7300   30.6450   69.2720 C.2    36  GLU36       0.3649
     14  OE1       -3.2650   31.4030   68.4340 O.co2  36  GLU36      -0.2457
     15  OE2       -1.7890   29.8190   69.0180 O.co2  36  GLU36      -0.2457
     16  N         -0.6100   31.5630   74.5380 N.am   37  THR37      -0.1951
     17  CA         0.1470   31.1800   75.7080 C.3    37  THR37       0.1897
     18  C         -0.2060   32.0480   76.9280 C.2    37  THR37       0.2313
     19  O         -0.2120   33.3010   76.8360 O.2    37  THR37      -0.2863
     20  CB         1.6180   30.6340   75.4330 C.3    37  THR37       0.1794
     21  OG1        2.6380   31.4880   75.9260 O.3    37  THR37      -0.2208
     22  CG2        1.8340   30.3310   74.0420 C.3    37  THR37       0.0378
     23  N          0.0280   32.8330   81.0040 N.3    39  ILE39      -0.1245
     24  CA         0.7680   32.6540   82.2630 C.3    39  ILE39       0.1561
     25  C         -0.1980   32.7580   83.4760 C.2    39  ILE39       0.2260
     26  O         -0.9600   33.7310   83.5980 O.2    39  ILE39      -0.2867
     27  CB         1.8970   33.6410   82.3740 C.3    39  ILE39       0.0252
     28  CG1        2.7830   33.4940   81.1100 C.3    39  ILE39       0.0019
     29  CG2        2.6330   33.4090   83.7300 C.3    39  ILE39       0.0019
     30  CD1        4.1370   34.1590   81.1910 C.3    39  ILE39       0.0001
     31  N          2.1270   27.6470   82.7990 N.3    56  VAL56      -0.1245
     32  CA         1.8450   28.2240   81.4520 C.3    56  VAL56       0.1561
     33  C          0.8960   27.2810   80.6850 C.2    56  VAL56       0.2260
     34  O          1.1890   26.0580   80.5040 O.2    56  VAL56      -0.2867
     35  CB         3.1130   28.4750   80.6510 C.3    56  VAL56       0.0252
     36  CG1        2.7740   29.2280   79.2920 C.3    56  VAL56       0.0019
     37  CG2        4.2170   29.2160   81.5120 C.3    56  VAL56       0.0019
     38  N         -0.9730   26.5370   77.1060 N.3    58  ARG58      -0.1245
     39  CA        -1.0740   26.7560   75.6850 C.3    58  ARG58       0.1563
     40  C         -2.4520   26.2640   75.2380 C.2    58  ARG58       0.2260
     41  O         -2.7560   25.0930   75.3690 O.2    58  ARG58      -0.2867
     42  CB         0.0100   26.0270   74.9100 C.3    58  ARG58       0.0307
     43  CG        -0.2780   26.2460   73.3770 C.3    58  ARG58       0.0489
     44  CD         0.8400   25.8630   72.4570 C.3    58  ARG58       0.2205
     45  NE         1.9920   26.7140   72.6250 N.pl3  58  ARG58      -0.0865
     46  CZ         2.4620   27.5280   71.6780 C.cat  58  ARG58       0.5346
     47  NH1        1.8600   27.5540   70.5090 N.pl3  58  ARG58       0.1354
     48  NH2        3.5490   28.2850   71.8910 N.pl3  58  ARG58       0.1354
     49  N         10.4060   23.2440   78.8350 N.3    93  PRO93      -0.2116
     50  CA         9.6820   23.2880   80.0980 C.3    93  PRO93       0.1372
     51  C          9.1550   21.8910   80.4370 C.2    93  PRO93       0.2244
     52  O          8.8680   21.1110   79.5000 O.2    93  PRO93      -0.2868
     53  CB         8.5190   24.2680   79.8100 C.3    93  PRO93       0.0268
     54  CG         8.9210   24.9960   78.5940 C.3    93  PRO93       0.0207
     55  CD         9.7020   24.0080   77.7900 C.3    93  PRO93       0.0892
     56  N          2.1830   23.6580   81.3250 N.3   112  MET112     -0.1230
     57  CA         3.6060   23.4910   81.4310 C.3   112  MET112      0.1702
     58  C          4.0650   24.1290   82.7010 C.2   112  MET112      0.2592
     59  O          3.3950   25.0180   83.1530 O.2   112  MET112     -0.2718
     60  CB         4.2420   24.3640   80.3450 C.3   112  MET112      0.0401
     61  CG         4.7750   23.7380   79.1620 C.3   112  MET112      0.0596
     62  SD         5.0450   25.1530   78.0530 S.3   112  MET112     -0.1393
     63  CE         3.3990   25.5410   77.4800 C.3   112  MET112      0.0692
     64  N          5.2730   23.8310   83.1860 N.am  113  ASP113     -0.1960
     65  CA         5.7880   24.6480   84.2710 C.3   113  ASP113      0.1840
     66  C          6.3120   25.9320   83.6200 C.2   113  ASP113      0.2622
     67  O          6.6790   25.9610   82.4190 O.2   113  ASP113     -0.2715
     68  CB         6.9250   23.9740   85.0790 C.3   113  ASP113      0.1450
     69  CG         6.4440   22.8320   85.9810 C.2   113  ASP113      0.3671
     70  OD1        5.2520   22.7760   86.3350 O.co2 113  ASP113     -0.2456
     71  OD2        7.3100   21.9880   86.3530 O.co2 113  ASP113     -0.2456
     72  N          6.3560   26.9740   84.4410 N.am  114  TYR114     -0.1960
     73  CA         7.0280   28.2440   84.1450 C.3   114  TYR114      0.1771
     74  C          8.5360   28.0770   84.2910 C.2   114  TYR114      0.2619
     75  O          9.0240   27.4180   85.2320 O.2   114  TYR114     -0.2715
     76  CB         6.5630   29.3010   85.1420 C.3   114  TYR114      0.0574
     77  CG         6.9920   30.7320   84.9120 C.ar  114  TYR114     -0.0198
     78  CD1        6.2370   31.5500   84.1480 C.ar  114  TYR114     -0.0009
     79  CD2        8.1740   31.2430   85.5050 C.ar  114  TYR114     -0.0009
     80  CE1        6.6090   32.8430   83.9210 C.ar  114  TYR114      0.0417
     81  CE2        8.5670   32.5580   85.2950 C.ar  114  TYR114      0.0417
     82  CZ         7.7580   33.3520   84.4980 C.ar  114  TYR114      0.1957
     83  OH         8.0450   34.6520   84.2480 O.3   114  TYR114     -0.2866
     84  N          9.2510   28.6890   83.3440 N.am  115  VAL115     -0.1977
     85  CA        10.6950   28.7330   83.3710 C.3   115  VAL115      0.1596
     86  C         11.0300   30.1950   83.3790 C.2   115  VAL115      0.2287
     87  O         10.4670   30.9730   82.5860 O.2   115  VAL115     -0.2864
     88  CB        11.3220   27.9770   82.1560 C.3   115  VAL115      0.0276
     89  CG1       12.8530   28.0020   82.2590 C.3   115  VAL115      0.0022
     90  CG2       10.8130   26.5620   82.1410 C.3   115  VAL115      0.0022
     91  N         13.7030   36.6610   76.8100 N.3   119  VAL119     -0.1245
     92  CA        13.6180   36.3180   75.4020 C.3   119  VAL119      0.1561
     93  C         13.9920   37.5120   74.5350 C.2   119  VAL119      0.2260
     94  O         13.6030   38.6340   74.8490 O.2   119  VAL119     -0.2867
     95  CB        12.2240   35.6840   75.1010 C.3   119  VAL119      0.0252
     96  CG1       11.1950   36.4110   75.7430 C.3   119  VAL119      0.0019
     97  CG2       11.9450   35.5710   73.5750 C.3   119  VAL119      0.0019
     98  N         10.2100   40.1590   70.1150 N.3   122  ASP122     -0.1239
     99  CA         9.5560   40.3850   68.8650 C.3   122  ASP122      0.1674
    100  C          8.9640   41.7790   68.7610 C.2   122  ASP122      0.2266
    101  O          8.8550   42.3220   67.6490 O.2   122  ASP122     -0.2867
    102  CB         8.4460   39.3610   68.6290 C.3   122  ASP122      0.1410
    103  CG         8.9980   38.0270   68.1970 C.2   122  ASP122      0.3668
    104  OD1        8.1690   37.1360   67.9980 O.co2 122  ASP122     -0.2456
    105  OD2       10.2500   37.8690   68.0500 O.co2 122  ASP122     -0.2456
    106  N          9.5560   26.8260   64.2130 N.3   223  ASP223     -0.1239
    107  CA         9.7860   28.2320   64.3850 C.3   223  ASP223      0.1674
    108  C         11.0870   28.3690   65.1650 C.2   223  ASP223      0.2266
    109  O         11.1220   28.9270   66.2220 O.2   223  ASP223     -0.2867
    110  CB         8.6340   28.8340   65.1700 C.3   223  ASP223      0.1410
    111  CG         8.4620   30.3080   64.9470 C.2   223  ASP223      0.3668
    112  OD1        9.3480   30.9160   64.4230 O.co2 223  ASP223     -0.2456
    113  OD2        7.4340   30.8530   65.3200 O.co2 223  ASP223     -0.2456
    114  N         13.9520   29.8970   66.1670 N.3   225  ARG225     -0.1245
    115  CA        14.5490   31.2400   66.2200 C.3   225  ARG225      0.1563
    116  C         14.7180   31.7490   67.6250 C.2   225  ARG225      0.2260
    117  O         13.9420   31.3630   68.5220 O.2   225  ARG225     -0.2867
    118  CB        13.7000   32.2600   65.4430 C.3   225  ARG225      0.0307
    119  CG        12.2280   32.3150   65.8340 C.3   225  ARG225      0.0489
    120  CD        11.5710   33.3400   64.8440 C.3   225  ARG225      0.2205
    121  NE        10.1870   33.6330   65.2170 N.pl3 225  ARG225     -0.0865
    122  CZ         9.8010   34.6600   65.9810 C.cat 225  ARG225      0.5346
    123  NH1       10.7030   35.5320   66.5110 N.pl3 225  ARG225      0.1354
    124  NH2        8.5020   34.7910   66.2320 N.pl3 225  ARG225      0.1354
    125  N         13.8620   34.2170   69.2830 N.3   227  GLY227     -0.1210
    126  CA        12.6790   34.7710   69.9430 C.3   227  GLY227      0.1956
    127  C         11.7470   33.7240   70.5250 C.2   227  GLY227      0.2611
    128  O         10.7310   34.0410   71.1380 O.2   227  GLY227     -0.2717
    129  N         12.0800   32.4620   70.3310 N.am  228  ASN228     -0.1974
    130  CA        11.3020   31.3610   70.8840 C.3   228  ASN228      0.1688
    131  C         12.1210   30.5240   71.9120 C.2   228  ASN228      0.2292
    132  O         11.8080   29.3650   72.1630 O.2   228  ASN228     -0.2864
    133  CB        10.7390   30.4800   69.7500 C.3   228  ASN228      0.1181
    134  CG         9.4950   31.0770   69.1200 C.2   228  ASN228      0.2629
    135  OD1        8.7650   31.8350   69.7740 O.2   228  ASN228     -0.2716
    136  ND2        9.2480   30.7450   67.8180 N.am  228  ASN228     -0.0877
    137  N         13.8030   30.9700   75.9260 N.3   230  LEU230     -0.1245
    138  CA        14.0140   31.6850   77.1750 C.3   230  LEU230      0.1561
    139  C         15.4980   31.5200   77.5120 C.2   230  LEU230      0.2260
    140  O         16.0240   30.4320   77.3930 O.2   230  LEU230     -0.2867
    141  CB        13.1460   31.0870   78.2940 C.3   230  LEU230      0.0270
    142  CG        11.6690   31.5270   78.3700 C.3   230  LEU230      0.0019
    143  CD1       10.8640   30.5460   79.1850 C.3   230  LEU230      0.0001
    144  CD2       11.4960   32.9060   78.9990 C.3   230  LEU230      0.0001
    145  N         10.9420   27.0280   73.3070 N.3   240  LEU240     -0.1231
    146  CA         9.4680   27.1770   73.2480 C.3   240  LEU240      0.1693
    147  C          8.8980   27.0880   71.8530 C.2   240  LEU240      0.2592
    148  O          9.6300   27.1300   70.8700 O.2   240  LEU240     -0.2718
    149  CB         9.0150   28.5350   73.8140 C.3   240  LEU240      0.0284
    150  CG         9.6350   28.9610   75.1430 C.3   240  LEU240      0.0019
    151  CD1        9.1040   30.3570   75.5330 C.3   240  LEU240      0.0001
    152  CD2        9.2510   27.9520   76.2080 C.3   240  LEU240      0.0001
    153  N          7.5650   27.0620   71.7820 N.am  241  ASP241     -0.1974
    154  CA         6.8360   27.3640   70.5630 C.3   241  ASP241      0.1709
    155  C          7.0680   26.3030   69.4920 C.2   241  ASP241      0.2293
    156  O          7.6900   26.5570   68.4430 O.2   241  ASP241     -0.2864
    157  CB         7.1710   28.8180   70.0510 C.3   241  ASP241      0.1436
    158  CG         6.0700   29.3890   69.1050 C.2   241  ASP241      0.3671
    159  OD1        5.1170   28.6350   68.8140 O.co2 241  ASP241     -0.2456
    160  OD2        6.1690   30.5740   68.6440 O.co2 241  ASP241     -0.2456
    161  N          4.8210   24.8510   67.6900 N.3   243  GLU243     -0.1245
    162  CA         3.6040   24.6380   66.8610 C.3   243  GLU243      0.1567
    163  C          3.8270   24.2410   65.3840 C.2   243  GLU243      0.2260
    164  O          2.9010   23.7290   64.7290 O.2   243  GLU243     -0.2867
    165  CB         2.6050   25.7470   66.9670 C.3   243  GLU243      0.0388
    166  CG         3.0220   27.1060   66.5020 C.3   243  GLU243      0.1160
    167  CD         1.9920   28.2170   66.8990 C.2   243  GLU243      0.3649
    168  OE1        2.4730   29.3700   66.9390 O.co2 243  GLU243     -0.2457
    169  OE2        0.7530   27.9640   67.1610 O.co2 243  GLU243     -0.2457
@<TRIPOS>BOND
     1   106   107    1
     2   107   108    1
     3   107   110    1
     4   112   111   ar
     5   164   163    2
     6   120   121    1
     7   120   119    1
     8   111   110    1
     9   111   113   ar
    10   108   109    2
    11   121   122    2
    12   163   162    1
    13   118   119    1
    14   118   115    1
    15   122   124    1
    16   122   123    1
    17   114   115    1
    18   115   116    1
    19   166   167    1
    20   166   165    1
    21   162   165    1
    22   162   161    1
    23   167   168   ar
    24   167   169   ar
    25   116   117    2
    26   101   100    2
    27   136   134   am
    28   104   103   ar
    29   105   103   ar
    30   103   102    1
    31    14    13   ar
    32   156   155    2
    33   102    99    1
    34   160   158   ar
    35   100    99    1
    36   159   158   ar
    37    99    98    1
    38    15    13   ar
    39   158   157    1
    40   134   133    1
    41   134   135    2
    42    13    12    1
    43   125   126    1
    44   155   154    1
    45   133   130    1
    46   126   127    1
    47   157   154    1
    48   129   127   am
    49   129   130    1
    50    47    46    1
    51   127   128    2
    52   154   153    1
    53    12    11    1
    54   148   147    2
    55   130   131    1
    56    46    48    1
    57    46    45    2
    58    11     8    1
    59   153   147   am
    60   147   146    1
    61   131   132    2
    62    44    45    1
    63    44    43    1
    64     7     8    1
    65     7     3   am
    66     8     9    1
    67   146   145    1
    68   146   149    1
    69    43    42    1
    70     2     3    1
    71     2     1    1
    72     2     5    1
    73    97    95    1
    74     3     4    2
    75   149   150    1
    76    22    20    1
    77     9    16   am
    78     9    10    2
    79     6     5    1
    80    93    94    2
    81    93    92    1
    82    16    17    1
    83    42    39    1
    84    95    92    1
    85    95    96    1
    86   150   151    1
    87   150   152    1
    88    40    41    2
    89    40    39    1
    90    92    91    1
    91    20    17    1
    92    20    21    1
    93    39    38    1
    94    17    18    1
    95   137   138    1
    96    19    18    2
    97   138   139    1
    98   138   141    1
    99   140   139    2
   100    63    62    1
   101    55    54    1
   102    55    49    1
   103    62    61    1
   104   141   142    1
   105   142   144    1
   106   142   143    1
   107    54    53    1
   108    49    50    1
   109    61    60    1
   110    36    35    1
   111    52    51    2
   112    53    50    1
   113    50    51    1
   114    60    57    1
   115    34    33    2
   116    35    32    1
   117    35    37    1
   118    33    32    1
   119    23    24    1
   120    28    30    1
   121    28    27    1
   122    56    57    1
   123    57    58    1
   124    32    31    1
   125    90    88    1
   126    88    89    1
   127    88    85    1
   128    24    27    1
   129    24    25    1
   130    27    29    1
   131    67    66    2
   132    87    86    2
   133    58    59    2
   134    58    64   am
   135    64    65    1
   136    84    85    1
   137    84    74   am
   138    85    86    1
   139    25    26    2
   140    66    65    1
   141    66    72   am
   142    80    78   ar
   143    80    82   ar
   144    73    74    1
   145    73    72    1
   146    73    76    1
   147    78    77   ar
   148    83    82    1
   149    65    68    1
   150    74    75    2
   151    82    81   ar
   152    77    76    1
   153    77    79   ar
   154    68    69    1
   155    81    79   ar
   156    69    70   ar
   157    69    71   ar
