@<TRIPOS>MOLECULE
tmp/3atwB00.pdb
 202 200 0 0 0
SMALL
GASTEIGER

@<TRIPOS>ATOM
      1  N        -20.6690  -10.0400   26.2960 N.3    26  THR26      -0.1203
      2  CA       -19.8820   -8.8350   26.0620 C.3    26  THR26       0.1994
      3  C        -20.0720   -8.3730   24.6120 C.2    26  THR26       0.2617
      4  O        -20.0610   -9.1750   23.6780 O.2    26  THR26      -0.2717
      5  CB       -18.3970   -9.0430   26.4260 C.3    26  THR26       0.1784
      6  OG1      -18.2840   -9.2410   27.8400 O.3    26  THR26      -0.2211
      7  CG2      -17.5780   -7.8290   26.0730 C.3    26  THR26       0.0376
      8  N        -20.2770   -7.0730   24.4510 N.am   27  LEU27      -0.1979
      9  CA       -20.4530   -6.4700   23.1400 C.3    27  LEU27       0.1596
     10  C        -20.0440   -5.0090   23.2220 C.2    27  LEU27       0.2287
     11  O        -19.5340   -4.5660   24.2610 O.2    27  LEU27      -0.2864
     12  CB       -21.8990   -6.6510   22.6330 C.3    27  LEU27       0.0297
     13  CG       -23.1110   -6.3700   23.5380 C.3    27  LEU27       0.0022
     14  CD1      -23.2670   -4.8850   23.9020 C.3    27  LEU27       0.0001
     15  CD2      -24.3750   -6.8810   22.8680 C.3    27  LEU27       0.0001
     16  N        -30.6280   -6.3960   23.4880 N.3    41  HIS41      -0.1241
     17  CA       -30.5670   -7.8460   23.7110 C.3    41  HIS41       0.1621
     18  C        -29.3540   -8.2850   24.5570 C.2    41  HIS41       0.2264
     19  O        -29.2050   -9.4750   24.8730 O.2    41  HIS41      -0.2867
     20  CB       -30.6760   -8.6430   22.3990 C.3    41  HIS41       0.0745
     21  CG       -29.5060   -8.4890   21.4750 C.ar   41  HIS41       0.0817
     22  ND1      -28.2350   -8.9200   21.7940 N.ar   41  HIS41      -0.2268
     23  CD2      -29.4250   -7.9850   20.2200 C.ar   41  HIS41       0.1154
     24  CE1      -27.4200   -8.6740   20.7820 C.ar   41  HIS41       0.1986
     25  NE2      -28.1190   -8.1120   19.8130 N.ar   41  HIS41      -0.2212
     26  N        -30.4160  -10.2440   27.5680 N.3    44  CYS44      -0.1235
     27  CA       -30.9990  -11.5700   27.4030 C.3    44  CYS44       0.1677
     28  C        -30.0320  -12.6910   27.7160 C.2    44  CYS44       0.2270
     29  O        -28.8660  -12.6510   27.3120 O.2    44  CYS44      -0.2867
     30  CB       -31.4720  -11.7840   25.9630 C.3    44  CYS44       0.0956
     31  SG       -32.7660  -10.7090   25.3790 S.3    44  CYS44      -0.0801
     32  N        -33.4760  -14.9840   24.7100 N.3    49  MET49      -0.1245
     33  CA       -33.3360  -14.7320   23.2710 C.3    49  MET49       0.1570
     34  C        -34.4720  -15.3320   22.4300 C.2    49  MET49       0.2261
     35  O        -34.8910  -14.7310   21.4370 O.2    49  MET49      -0.2867
     36  CB       -31.9790  -15.2430   22.7680 C.3    49  MET49       0.0387
     37  CG       -30.7470  -14.5070   23.3340 C.3    49  MET49       0.0595
     38  SD       -29.1630  -15.1490   22.6960 S.3    49  MET49      -0.1393
     39  CE       -27.9800  -14.0650   23.5060 C.3    49  MET49       0.0692
     40  N        -38.9970   -7.6990   26.7100 N.3    54  TYR54      -0.1241
     41  CA       -37.9290   -6.7430   27.0260 C.3    54  TYR54       0.1605
     42  C        -38.2070   -5.8320   28.2140 C.2    54  TYR54       0.2264
     43  O        -37.2980   -5.5500   28.9930 O.2    54  TYR54      -0.2867
     44  CB       -37.5050   -5.9470   25.7830 C.3    54  TYR54       0.0534
     45  CG       -36.6040   -6.7570   24.8740 C.ar   54  TYR54      -0.0201
     46  CD1      -35.2650   -6.9820   25.2140 C.ar   54  TYR54      -0.0009
     47  CD2      -37.0860   -7.3140   23.6820 C.ar   54  TYR54      -0.0009
     48  CE1      -34.4260   -7.7320   24.3950 C.ar   54  TYR54       0.0417
     49  CE2      -36.2440   -8.0680   22.8490 C.ar   54  TYR54       0.0417
     50  CZ       -34.9140   -8.2660   23.2200 C.ar   54  TYR54       0.1957
     51  OH       -34.0680   -9.0050   22.4320 O.3    54  TYR54      -0.2866
     52  N        -19.2390   -9.5170    9.8230 N.3   140  PHE140     -0.1227
     53  CA       -19.4580   -9.5100   11.2640 C.3   140  PHE140      0.1736
     54  C        -19.3400  -10.8930   11.8590 C.2   140  PHE140      0.2595
     55  O        -19.7810  -11.8780   11.2700 O.2   140  PHE140     -0.2718
     56  CB       -20.8590   -8.9950   11.6030 C.3   140  PHE140      0.0547
     57  CG       -21.0440   -7.5140   11.4510 C.ar  140  PHE140     -0.0202
     58  CD1      -20.2770   -6.6110   12.1850 C.ar  140  PHE140     -0.0042
     59  CD2      -22.0220   -7.0200   10.5910 C.ar  140  PHE140     -0.0042
     60  CE1      -20.4700   -5.2360   12.0610 C.ar  140  PHE140     -0.0003
     61  CE2      -22.2290   -5.6460   10.4560 C.ar  140  PHE140     -0.0003
     62  CZ       -21.4530   -4.7490   11.1920 C.ar  140  PHE140     -0.0000
     63  N        -18.7470  -10.9400   13.0430 N.am  141  LEU141     -0.1966
     64  CA       -18.6310  -12.1590   13.8190 C.3   141  LEU141      0.1728
     65  C        -19.3350  -11.9270   15.1470 C.2   141  LEU141      0.2616
     66  O        -19.7200  -10.7930   15.4610 O.2   141  LEU141     -0.2715
     67  CB       -17.1490  -12.5070   14.0340 C.3   141  LEU141      0.0311
     68  CG       -16.2700  -12.6630   12.7810 C.3   141  LEU141      0.0022
     69  CD1      -14.7840  -12.7550   13.1440 C.3   141  LEU141      0.0001
     70  CD2      -16.7100  -13.8650   11.9310 C.3   141  LEU141      0.0001
     71  N        -19.5070  -12.9970   15.9210 N.am  142  ASN142     -0.1958
     72  CA       -20.0610  -12.8970   17.2750 C.3   142  ASN142      0.1819
     73  C        -19.2250  -11.9330   18.1020 C.2   142  ASN142      0.2622
     74  O        -17.9950  -12.0150   18.0820 O.2   142  ASN142     -0.2715
     75  CB       -20.1260  -14.2680   17.9530 C.3   142  ASN142      0.1195
     76  CG       -21.0070  -14.2660   19.2140 C.2   142  ASN142      0.2630
     77  OD1      -21.9040  -13.4230   19.3710 O.2   142  ASN142     -0.2716
     78  ND2      -20.7570  -15.2200   20.1090 N.am  142  ASN142     -0.0877
     79  N        -19.9000  -11.0170   18.7990 N.am  143  GLY143     -0.1940
     80  CA       -19.2480   -9.9660   19.5840 C.3   143  GLY143      0.2014
     81  C        -19.2590   -8.6000   18.9100 C.2   143  GLY143      0.2640
     82  O        -18.9000   -7.5920   19.5310 O.2   143  GLY143     -0.2714
     83  N        -19.6740   -8.5520   17.6420 N.am  144  SER144     -0.1935
     84  CA       -19.6430   -7.2980   16.8940 C.3   144  SER144      0.2055
     85  C        -20.8220   -6.3610   17.1880 C.2   144  SER144      0.2643
     86  O        -20.7790   -5.1890   16.8050 O.2   144  SER144     -0.2714
     87  CB       -19.5020   -7.5470   15.3870 C.3   144  SER144      0.2130
     88  OG       -20.5850   -8.2740   14.8560 O.3   144  SER144     -0.2179
     89  N        -21.8580   -6.8690   17.8650 N.am  145  CYS145     -0.1967
     90  CA       -23.0110   -6.0430   18.2450 C.3   145  CYS145      0.1712
     91  C        -22.5830   -4.7630   18.9220 C.2   145  CYS145      0.2296
     92  O        -21.6620   -4.7590   19.7420 O.2   145  CYS145     -0.2864
     93  CB       -23.9590   -6.7800   19.1730 C.3   145  CYS145      0.0983
     94  SG       -24.8350   -8.1020   18.3880 S.3   145  CYS145     -0.0798
     95  N        -25.3620   -2.4650   14.8030 N.3   163  HIS163     -0.1226
     96  CA       -25.4980   -3.8850   14.4870 C.3   163  HIS163      0.1752
     97  C        -26.1090   -4.6910   15.6220 C.2   163  HIS163      0.2596
     98  O        -25.7080   -4.5480   16.7820 O.2   163  HIS163     -0.2718
     99  CB       -24.1480   -4.4820   14.0930 C.3   163  HIS163      0.0759
    100  CG       -24.2420   -5.8880   13.5990 C.ar  163  HIS163      0.0818
    101  ND1      -25.0340   -6.2460   12.5310 N.ar  163  HIS163     -0.2268
    102  CD2      -23.6470   -7.0250   14.0250 C.ar  163  HIS163      0.1154
    103  CE1      -24.9310   -7.5460   12.3250 C.ar  163  HIS163      0.1986
    104  NE2      -24.0940   -8.0430   13.2180 N.ar  163  HIS163     -0.2212
    105  N        -27.0660   -5.5470   15.2610 N.am  164  HIS164     -0.1961
    106  CA       -27.7830   -6.4070   16.2040 C.3   164  HIS164      0.1787
    107  C        -27.6510   -7.8970   15.9060 C.2   164  HIS164      0.2620
    108  O        -27.4620   -8.6950   16.8370 O.2   164  HIS164     -0.2715
    109  CB       -29.2730   -6.0640   16.2180 C.3   164  HIS164      0.0785
    110  CG       -29.6050   -4.8200   16.9710 C.ar  164  HIS164      0.0821
    111  ND1      -29.1720   -3.5730   16.5780 N.ar  164  HIS164     -0.2267
    112  CD2      -30.3500   -4.6260   18.0840 C.ar  164  HIS164      0.1154
    113  CE1      -29.6230   -2.6640   17.4270 C.ar  164  HIS164      0.1986
    114  NE2      -30.3420   -3.2750   18.3490 N.ar  164  HIS164     -0.2212
    115  N        -27.7530   -8.2780   14.6270 N.am  165  MET165     -0.1963
    116  CA       -27.8820   -9.7010   14.2790 C.3   165  MET165      0.1736
    117  C        -27.5840  -10.0820   12.8190 C.2   165  MET165      0.2616
    118  O        -27.5960   -9.2350   11.9220 O.2   165  MET165     -0.2715
    119  CB       -29.2950  -10.1930   14.6590 C.3   165  MET165      0.0427
    120  CG       -30.4250   -9.5790   13.8290 C.3   165  MET165      0.0599
    121  SD       -32.0450   -9.6950   14.6120 S.3   165  MET165     -0.1393
    122  CE       -33.0890   -9.2300   13.2430 C.3   165  MET165      0.0692
    123  N        -27.3270  -11.3750   12.6160 N.am  166  GLU166     -0.1963
    124  CA       -27.1400  -11.9620   11.2970 C.3   166  GLU166      0.1733
    125  C        -28.2960  -12.8930   10.9870 C.2   166  GLU166      0.2616
    126  O        -28.7580  -13.6240   11.8640 O.2   166  GLU166     -0.2715
    127  CB       -25.8190  -12.7410   11.2240 C.3   166  GLU166      0.0429
    128  CG       -25.5050  -13.3370    9.8530 C.3   166  GLU166      0.1163
    129  CD       -24.1680  -14.0590    9.8020 C.2   166  GLU166      0.3649
    130  OE1      -24.1640  -15.2780    9.5040 O.co2 166  GLU166     -0.2457
    131  OE2      -23.1250  -13.4160   10.0590 O.co2 166  GLU166     -0.2457
    132  N        -28.7500  -12.8550    9.7350 N.am  167  LEU167     -0.1964
    133  CA       -29.8320  -13.7140    9.2400 C.3   167  LEU167      0.1713
    134  C        -29.2740  -14.9990    8.6060 C.2   167  LEU167      0.2458
    135  O        -28.0880  -15.0420    8.2760 O.2   167  LEU167     -0.2730
    136  CB       -30.7040  -12.9330    8.2530 C.3   167  LEU167      0.0310
    137  CG       -31.4120  -11.6820    8.7790 C.3   167  LEU167      0.0022
    138  CD1      -32.1780  -11.0300    7.6530 C.3   167  LEU167      0.0001
    139  CD2      -32.3440  -11.9790    9.9690 C.3   167  LEU167      0.0001
    140  N        -30.1180  -16.0500    8.4310 N.am  168  PRO168     -0.2727
    141  CA       -29.6810  -17.3640    7.8940 C.3   168  PRO168      0.1402
    142  C        -28.8920  -17.3200    6.5740 C.2   168  PRO168      0.2269
    143  O        -28.0300  -18.1730    6.3330 O.2   168  PRO168     -0.2865
    144  CB       -31.0050  -18.1050    7.6670 C.3   168  PRO168      0.0296
    145  CG       -31.9380  -17.5250    8.6510 C.3   168  PRO168      0.0237
    146  CD       -31.5550  -16.0680    8.7820 C.3   168  PRO168      0.0939
    147  N        -26.9770   -9.1140    7.2470 N.3   172  HIS172     -0.1241
    148  CA       -27.0580   -8.5170    8.5790 C.3   172  HIS172      0.1621
    149  C        -28.1890   -7.5220    8.7550 C.2   172  HIS172      0.2264
    150  O        -28.5830   -6.8210    7.8190 O.2   172  HIS172     -0.2867
    151  CB       -25.7180   -7.8770    8.9400 C.3   172  HIS172      0.0745
    152  CG       -24.5600   -8.8080    8.7720 C.ar  172  HIS172      0.0817
    153  ND1      -24.2190   -9.7480    9.7200 N.ar  172  HIS172     -0.2268
    154  CD2      -23.6890   -8.9680    7.7490 C.ar  172  HIS172      0.1154
    155  CE1      -23.1710  -10.4330    9.2970 C.ar  172  HIS172      0.1986
    156  NE2      -22.8310   -9.9790    8.1020 N.ar  172  HIS172     -0.2212
    157  N        -35.7510   -8.1870   17.3060 N.3   187  ASP187     -0.1225
    158  CA       -34.6850   -8.7580   18.1390 C.3   187  ASP187      0.1805
    159  C        -35.1780   -9.9520   18.9500 C.2   187  ASP187      0.2598
    160  O        -35.3030   -9.8920   20.1760 O.2   187  ASP187     -0.2718
    161  CB       -33.9380   -7.7130   18.9950 C.3   187  ASP187      0.1424
    162  CG       -34.8440   -6.6850   19.6370 C.2   187  ASP187      0.3668
    163  OD1      -36.0810   -6.6870   19.4200 O.co2 187  ASP187     -0.2456
    164  OD2      -34.2870   -5.8490   20.3800 O.co2 187  ASP187     -0.2456
    165  N        -35.4460  -11.0370   18.2200 N.am  188  ILE188     -0.1966
    166  CA       -35.8460  -12.3330   18.7600 C.3   188  ILE188      0.1727
    167  C        -35.0890  -13.3970   17.9760 C.2   188  ILE188      0.2616
    168  O        -34.9690  -13.2840   16.7550 O.2   188  ILE188     -0.2715
    169  CB       -37.3690  -12.5900   18.5990 C.3   188  ILE188      0.0290
    170  CG1      -38.1920  -11.4460   19.2240 C.3   188  ILE188      0.0022
    171  CG2      -37.7580  -13.9650   19.1900 C.3   188  ILE188      0.0023
    172  CD1      -39.6920  -11.4910   18.9220 C.3   188  ILE188      0.0001
    173  N        -34.5770  -14.4180   18.6640 N.am  189  GLN189     -0.1963
    174  CA       -33.8940  -15.5280   17.9970 C.3   189  GLN189      0.1733
    175  C        -34.9150  -16.5590   17.5090 C.2   189  GLN189      0.2617
    176  O        -35.0840  -17.6350   18.0960 O.2   189  GLN189     -0.2715
    177  CB       -32.8220  -16.1630   18.9010 C.3   189  GLN189      0.0408
    178  CG       -31.9340  -17.2020   18.1920 C.3   189  GLN189      0.0908
    179  CD       -30.9560  -17.9190   19.1230 C.2   189  GLN189      0.2608
    180  OE1      -30.3920  -17.3270   20.0490 O.2   189  GLN189     -0.2717
    181  NE2      -30.7440  -19.2040   18.8660 N.am  189  GLN189     -0.0878
    182  N        -35.6010  -16.1960   16.4310 N.am  190  THR190     -0.1937
    183  CA       -36.5740  -17.0530   15.7560 C.3   190  THR190      0.2028
    184  C        -36.3250  -16.9420   14.2510 C.2   190  THR190      0.2642
    185  O        -35.5800  -16.0570   13.8170 O.2   190  THR190     -0.2714
    186  CB       -38.0440  -16.6620   16.1190 C.3   190  THR190      0.1808
    187  OG1      -38.9580  -17.4920   15.3940 O.3   190  THR190     -0.2208
    188  CG2      -38.3530  -15.2000   15.7900 C.3   190  THR190      0.0379
    189  N        -36.9410  -17.8260   13.4650 N.am  191  ALA191     -0.1963
    190  CA       -36.8160  -17.8000   12.0000 C.3   191  ALA191      0.1728
    191  C        -37.2560  -16.4650   11.3900 C.2   191  ALA191      0.2616
    192  O        -38.4270  -16.0900   11.4370 O.2   191  ALA191     -0.2715
    193  CB       -37.6000  -18.9600   11.3650 C.3   191  ALA191      0.0334
    194  N        -36.2960  -15.7400   10.8360 N.am  192  GLN192     -0.1977
    195  CA       -36.5910  -14.5200   10.1100 C.3   192  GLN192      0.1601
    196  C        -35.8980  -14.6170    8.7700 C.2   192  GLN192      0.2287
    197  O        -34.7810  -15.1310    8.6660 O.2   192  GLN192     -0.2864
    198  CB       -36.1390  -13.2800   10.8800 C.3   192  GLN192      0.0394
    199  CG       -36.9410  -12.9850   12.1310 C.3   192  GLN192      0.0908
    200  CD       -36.3480  -11.8450   12.9350 C.2   192  GLN192      0.2608
    201  OE1      -36.4900  -10.6810   12.5750 O.2   192  GLN192     -0.2717
    202  NE2      -35.6850  -12.1780   14.0380 N.am  192  GLN192     -0.0878
@<TRIPOS>BOND
     1   143   142    2
     2   142   141    1
     3   147   148    1
     4   138   137    1
     5   144   141    1
     6   144   145    1
     7   154   156   ar
     8   154   152   ar
     9   150   149    2
    10   141   140    1
    11   156   155   ar
    12   136   137    1
    13   136   133    1
    14   135   134    2
    15   140   134   am
    16   140   146    1
    17   148   149    1
    18   148   151    1
    19   134   133    1
    20   145   146    1
    21   197   196    2
    22   196   195    1
    23   152   151    1
    24   152   153   ar
    25   137   139    1
    26   133   132    1
    27   155   153   ar
    28   130   129   ar
    29   132   125   am
    30   129   128    1
    31   129   131   ar
    32    52    53    1
    33   128   127    1
    34   195   194    1
    35   195   198    1
    36    61    59   ar
    37    61    62   ar
    38    59    57   ar
    39   194   191   am
    40   198   199    1
    41   125   124    1
    42   125   126    2
    43    62    60   ar
    44   127   124    1
    45    53    56    1
    46    53    54    1
    47    55    54    2
    48   124   123    1
    49   193   190    1
    50   191   192    2
    51   191   190    1
    52    57    56    1
    53    57    58   ar
    54    54    63   am
    55   118   117    2
    56    70    68    1
    57   190   189    1
    58    60    58   ar
    59   199   200    1
    60   103   101   ar
    61   103   104   ar
    62   101   100   ar
    63   201   200    2
    64   123   117   am
    65    68    69    1
    66    68    67    1
    67   117   116    1
    68   200   202   am
    69    63    64    1
    70   104   102   ar
    71   122   121    1
    72   189   184   am
    73   100   102   ar
    74   100    99    1
    75   185   184    2
    76    64    67    1
    77    64    65    1
    78   120   121    1
    79   120   119    1
    80    99    96    1
    81   184   183    1
    82   116   115    1
    83   116   119    1
    84    96    95    1
    85    96    97    1
    86   115   107   am
    87    88    87    1
    88    65    66    2
    89    65    71   am
    90   105    97   am
    91   105   106    1
    92    87    84    1
    93   187   186    1
    94    97    98    2
    95   183   186    1
    96   183   182    1
    97   188   186    1
    98   107   106    1
    99   107   108    2
   100    71    72    1
   101   106   109    1
   102   109   110    1
   103   182   175   am
   104   111   110   ar
   105   111   113   ar
   106   168   167    2
   107    86    85    2
   108    84    85    1
   109    84    83    1
   110   110   112   ar
   111    85    89   am
   112    72    75    1
   113    72    73    1
   114   157   158    1
   115   113   114   ar
   116   175   174    1
   117   175   176    2
   118    83    81   am
   119    89    90    1
   120    75    76    1
   121   167   173   am
   122   167   166    1
   123   174   173    1
   124   174   177    1
   125    74    73    2
   126   112   114   ar
   127    73    79   am
   128   158   159    1
   129   158   161    1
   130   178   177    1
   131   178   179    1
   132   165   166    1
   133   165   159   am
   134    90    91    1
   135    90    93    1
   136    94    93    1
   137   169   166    1
   138   169   171    1
   139   169   170    1
   140    79    80    1
   141   181   179   am
   142    81    82    2
   143    81    80    1
   144   172   170    1
   145    91    92    2
   146   159   160    2
   147   161   162    1
   148   179   180    2
   149    76    77    2
   150    76    78   am
   151   163   162   ar
   152   162   164   ar
   153    25    23   ar
   154    25    24   ar
   155    23    21   ar
   156    24    22   ar
   157    35    34    2
   158    21    22   ar
   159    21    20    1
   160    20    17    1
   161    34    33    1
   162    51    50    1
   163    12     9    1
   164    12    13    1
   165    38    37    1
   166    38    39    1
   167    36    33    1
   168    36    37    1
   169    49    50   ar
   170    49    47   ar
   171    15    13    1
   172     9    10    1
   173     9     8    1
   174    50    48   ar
   175    10    11    2
   176    33    32    1
   177    16    17    1
   178    13    14    1
   179     4     3    2
   180    47    45   ar
   181    17    18    1
   182    48    46   ar
   183     8     3   am
   184    18    19    2
   185     3     2    1
   186    45    46   ar
   187    45    44    1
   188    31    30    1
   189    44    41    1
   190    30    27    1
   191     2     1    1
   192     2     5    1
   193     7     5    1
   194     5     6    1
   195    40    41    1
   196    41    42    1
   197    29    28    2
   198    27    26    1
   199    27    28    1
   200    42    43    2
