@<TRIPOS>MOLECULE
tmp/3atyA00.pdb
 225 219 0 0 0
SMALL
GASTEIGER

@<TRIPOS>ATOM
      1  N         11.3710   -4.7670    3.0810 N.3    25  ALA25      -0.1231
      2  CA        12.5670   -4.5970    2.2690 C.3    25  ALA25       0.1679
      3  C         12.2680   -3.7940    1.0080 C.2    25  ALA25       0.2434
      4  O         11.1330   -3.7580    0.5380 O.2    25  ALA25      -0.2733
      5  CB        13.1260   -5.9600    1.8870 C.3    25  ALA25       0.0304
      6  N         13.2920   -3.1300    0.4480 N.am   26  PRO26      -0.2718
      7  CA        13.0970   -2.3420   -0.7720 C.3    26  PRO26       0.1535
      8  C         12.7640   -3.3070   -1.9100 C.2    26  PRO26       0.2598
      9  O         13.4780   -4.2800   -2.1280 O.2    26  PRO26      -0.2715
     10  CB        14.4460   -1.6470   -0.9530 C.3    26  PRO26       0.0310
     11  CG        15.4180   -2.6100   -0.3330 C.3    26  PRO26       0.0237
     12  CD        14.6880   -3.0530    0.9160 C.3    26  PRO26       0.0939
     13  N         11.6750   -3.0480   -2.6210 N.am   27  LEU27      -0.1964
     14  CA        11.2660   -3.9350   -3.7010 C.3    27  LEU27       0.1728
     15  C         10.8930   -3.1990   -4.9790 C.2    27  LEU27       0.2617
     16  O          9.8540   -2.5470   -5.0520 O.2    27  LEU27      -0.2715
     17  CB        10.0810   -4.7920   -3.2390 C.3    27  LEU27       0.0311
     18  CG        10.3210   -5.6800   -2.0120 C.3    27  LEU27       0.0022
     19  CD1        9.0170   -5.8790   -1.2540 C.3    27  LEU27       0.0001
     20  CD2       10.9210   -7.0160   -2.4400 C.3    27  LEU27       0.0001
     21  N         11.7550   -3.3140   -5.9830 N.am   28  THR28      -0.1937
     22  CA        11.5270   -2.6990   -7.2870 C.3    28  THR28       0.2028
     23  C         10.2800   -3.3270   -7.9070 C.2    28  THR28       0.2642
     24  O         10.2380   -4.5370   -8.1230 O.2    28  THR28      -0.2714
     25  CB        12.7310   -2.9570   -8.2160 C.3    28  THR28       0.1808
     26  OG1       13.8530   -2.1860   -7.7700 O.3    28  THR28      -0.2208
     27  CG2       12.4020   -2.5930   -9.6480 C.3    28  THR28       0.0379
     28  N          9.2690   -2.5100   -8.1930 N.am   29  ARG29      -0.1977
     29  CA         8.0390   -3.0220   -8.7900 C.3    29  ARG29       0.1597
     30  C          7.7520   -2.4050  -10.1620 C.2    29  ARG29       0.2287
     31  O          6.7610   -2.7450  -10.8100 O.2    29  ARG29      -0.2864
     32  CB         6.8540   -2.7950   -7.8440 C.3    29  ARG29       0.0334
     33  CG         7.0580   -3.3430   -6.4220 C.3    29  ARG29       0.0492
     34  CD         7.4610   -4.8190   -6.4140 C.3    29  ARG29       0.2205
     35  NE         6.4760   -5.6690   -7.0760 N.pl3  29  ARG29      -0.0865
     36  CZ         5.3040   -6.0190   -6.5530 C.cat  29  ARG29       0.5346
     37  NH1        4.4730   -6.7910   -7.2440 N.pl3  29  ARG29       0.1354
     38  NH2        4.9640   -5.6170   -5.3390 N.pl3  29  ARG29       0.1354
     39  N         14.2740    0.7900   -4.8210 N.3    61  ALA61      -0.1245
     40  CA        15.4300    1.4740   -5.3860 C.3    61  ALA61       0.1562
     41  C         14.9630    2.6060   -6.2880 C.2    61  ALA61       0.2260
     42  O         14.1930    2.3900   -7.2200 O.2    61  ALA61      -0.2867
     43  CB        16.2750    0.4910   -6.1840 C.3    61  ALA61       0.0290
     44  N         16.0640   -0.6020  -14.4150 N.3    71  PHE71      -0.1241
     45  CA        14.8420   -1.3960  -14.3700 C.3    71  PHE71       0.1605
     46  C         13.7770   -0.8880  -15.3340 C.2    71  PHE71       0.2264
     47  O         12.6000   -1.2490  -15.2260 O.2    71  PHE71      -0.2867
     48  CB        14.3070   -1.4210  -12.9360 C.3    71  PHE71       0.0534
     49  CG        15.3800   -1.6650  -11.9020 C.ar   71  PHE71      -0.0203
     50  CD1       16.2720   -2.7260  -12.0410 C.ar   71  PHE71      -0.0042
     51  CD2       15.5150   -0.8210  -10.8060 C.ar   71  PHE71      -0.0042
     52  CE1       17.2870   -2.9420  -11.1030 C.ar   71  PHE71      -0.0003
     53  CE2       16.5270   -1.0290   -9.8620 C.ar   71  PHE71      -0.0003
     54  CZ        17.4130   -2.0920  -10.0140 C.ar   71  PHE71      -0.0000
     55  N         15.2210    4.1770   -0.7640 N.3   103  GLN103     -0.1245
     56  CA        16.4950    3.5800   -1.1500 C.3   103  GLN103      0.1566
     57  C         16.9930    4.3190   -2.3850 C.2   103  GLN103      0.2260
     58  O         16.2440    4.4960   -3.3490 O.2   103  GLN103     -0.2867
     59  CB        16.3500    2.0890   -1.4710 C.3   103  GLN103      0.0367
     60  CG        17.7120    1.4220   -1.6850 C.3   103  GLN103      0.0905
     61  CD        17.6170   -0.0180   -2.1450 C.2   103  GLN103      0.2608
     62  OE1       16.9970   -0.3140   -3.1630 O.2   103  GLN103     -0.2717
     63  NE2       18.2480   -0.9210   -1.3990 N.am  103  GLN103     -0.0878
     64  N         22.0210    2.3380   -1.4870 N.3   195  HIS195     -0.1241
     65  CA        22.0560    1.0130   -2.0960 C.3   195  HIS195      0.1621
     66  C         23.4810    0.5820   -2.4170 C.2   195  HIS195      0.2264
     67  O         24.0040    0.8870   -3.4890 O.2   195  HIS195     -0.2867
     68  CB        21.2250    0.9730   -3.3820 C.3   195  HIS195      0.0745
     69  CG        20.8400   -0.4150   -3.7960 C.ar  195  HIS195      0.0817
     70  ND1       21.6100   -1.5190   -3.4980 N.ar  195  HIS195     -0.2268
     71  CD2       19.7560   -0.8800   -4.4610 C.ar  195  HIS195      0.1154
     72  CE1       21.0160   -2.6060   -3.9580 C.ar  195  HIS195      0.1986
     73  NE2       19.8880   -2.2470   -4.5460 N.ar  195  HIS195     -0.2212
     74  N         23.6780   -5.7930   -4.2000 N.3   198  ASN198     -0.1240
     75  CA        23.2060   -6.4490   -5.4110 C.3   198  ASN198      0.1653
     76  C         23.8230   -6.1180   -6.7670 C.2   198  ASN198      0.2266
     77  O         23.1240   -6.0810   -7.7850 O.2   198  ASN198     -0.2867
     78  CB        21.6850   -6.2970   -5.4780 C.3   198  ASN198      0.1155
     79  CG        21.0110   -6.6700   -4.1670 C.2   198  ASN198      0.2627
     80  OD1       21.4950   -7.5360   -3.4350 O.2   198  ASN198     -0.2716
     81  ND2       19.8840   -6.0280   -3.8690 N.am  198  ASN198     -0.0877
     82  N         25.0360   -3.3320   -8.0000 N.3   200  TYR200     -0.1241
     83  CA        24.8910   -2.0080   -8.5750 C.3   200  TYR200      0.1605
     84  C         26.1490   -1.1870   -8.3030 C.2   200  TYR200      0.2264
     85  O         27.1020   -1.7010   -7.7190 O.2   200  TYR200     -0.2867
     86  CB        23.5950   -1.3820   -8.0670 C.3   200  TYR200      0.0534
     87  CG        22.4210   -2.2450   -8.4970 C.ar  200  TYR200     -0.0201
     88  CD1       21.5900   -2.8590   -7.5600 C.ar  200  TYR200     -0.0009
     89  CD2       22.2000   -2.5210   -9.8490 C.ar  200  TYR200     -0.0009
     90  CE1       20.5730   -3.7290   -7.9550 C.ar  200  TYR200      0.0417
     91  CE2       21.1830   -3.3920  -10.2550 C.ar  200  TYR200      0.0417
     92  CZ        20.3790   -3.9910   -9.3020 C.ar  200  TYR200      0.1957
     93  OH        19.3890   -4.8580   -9.6990 O.3   200  TYR200     -0.2866
     94  N         22.7120   -0.3970    2.7910 N.3   249  ARG249     -0.1245
     95  CA        22.4660   -1.8050    2.4980 C.3   249  ARG249      0.1563
     96  C         23.6290   -2.4390    1.7380 C.2   249  ARG249      0.2260
     97  O         24.1890   -1.8310    0.8250 O.2   249  ARG249     -0.2867
     98  CB        21.1750   -1.9970    1.6860 C.3   249  ARG249      0.0307
     99  CG        20.7150   -3.4560    1.6980 C.3   249  ARG249      0.0489
    100  CD        19.4310   -3.7220    0.9180 C.3   249  ARG249      0.2205
    101  NE        18.6750   -4.8040    1.5460 N.pl3 249  ARG249     -0.0865
    102  CZ        17.7790   -5.5700    0.9320 C.cat 249  ARG249      0.5346
    103  NH1       17.1470   -6.5160    1.6140 N.pl3 249  ARG249      0.1354
    104  NH2       17.5300   -5.4160   -0.3600 N.pl3 249  ARG249      0.1354
    105  N         22.0470   -8.5090    3.2630 N.3   286  LEU286     -0.1245
    106  CA        21.5160   -9.7960    2.8380 C.3   286  LEU286      0.1561
    107  C         22.5230  -10.7450    3.4770 C.2   286  LEU286      0.2260
    108  O         23.7350  -10.5560    3.3350 O.2   286  LEU286     -0.2867
    109  CB        21.5490   -9.9490    1.3130 C.3   286  LEU286      0.0270
    110  CG        20.2830   -9.5570    0.5450 C.3   286  LEU286      0.0019
    111  CD1       20.0940   -8.0460    0.5850 C.3   286  LEU286      0.0001
    112  CD2       20.3980  -10.0360   -0.8960 C.3   286  LEU286      0.0001
    113  N         21.3620  -14.7910   -3.3750 N.3   290  MET290     -0.1245
    114  CA        20.0950  -14.9060   -4.0920 C.3   290  MET290      0.1570
    115  C         20.1590  -16.0760   -5.0690 C.2   290  MET290      0.2261
    116  O         19.1360  -16.6880   -5.3840 O.2   290  MET290     -0.2867
    117  CB        19.8130  -13.6240   -4.8790 C.3   290  MET290      0.0387
    118  CG        19.6570  -12.3740   -4.0360 C.3   290  MET290      0.0595
    119  SD        18.0270  -12.2240   -3.3090 S.3   290  MET290     -0.1393
    120  CE        17.1770  -11.3140   -4.6030 C.3   290  MET290      0.0692
    121  N         18.3910   -9.7870    6.2890 N.3   313  ASN313     -0.1225
    122  CA        17.4320  -10.1410    5.2560 C.3   313  ASN313      0.1785
    123  C         17.8430  -11.3640    4.4500 C.2   313  ASN313      0.2597
    124  O         19.0250  -11.6900    4.3660 O.2   313  ASN313     -0.2718
    125  CB        17.2550   -8.9670    4.2940 C.3   313  ASN313      0.1169
    126  CG        16.4970   -9.3580    3.0400 C.2   313  ASN313      0.2627
    127  OD1       15.2650   -9.3480    3.0120 O.2   313  ASN313     -0.2716
    128  ND2       17.2340   -9.7350    2.0030 N.am  313  ASN313     -0.0877
    129  N         16.8290  -12.0180    3.8780 N.am  314  LEU314     -0.1966
    130  CA        16.9370  -13.1830    2.9940 C.3   314  LEU314      0.1728
    131  C         16.4280  -14.5120    3.5370 C.2   314  LEU314      0.2616
    132  O         17.0440  -15.1370    4.4010 O.2   314  LEU314     -0.2715
    133  CB        18.3670  -13.3660    2.4650 C.3   314  LEU314      0.0311
    134  CG        18.5090  -14.4240    1.3570 C.3   314  LEU314      0.0022
    135  CD1       17.6510  -14.0410    0.1500 C.3   314  LEU314      0.0001
    136  CD2       19.9670  -14.5410    0.9420 C.3   314  LEU314      0.0001
    137  N         15.2830  -14.9240    3.0050 N.am  315  ARG315     -0.1963
    138  CA        14.6440  -16.1790    3.3560 C.3   315  ARG315      0.1729
    139  C         14.3420  -16.3780    4.8360 C.2   315  ARG315      0.2616
    140  O         14.5530  -17.4600    5.3850 O.2   315  ARG315     -0.2715
    141  CB        15.4830  -17.3390    2.8140 C.3   315  ARG315      0.0348
    142  CG        15.6620  -17.2830    1.3000 C.3   315  ARG315      0.0492
    143  CD        16.3780  -18.5110    0.7500 C.3   315  ARG315      0.2205
    144  NE        16.4080  -18.5060   -0.7120 N.pl3 315  ARG315     -0.0865
    145  CZ        17.3490  -17.9220   -1.4500 C.cat 315  ARG315      0.5346
    146  NH1       17.2760  -17.9710   -2.7740 N.pl3 315  ARG315      0.1354
    147  NH2       18.3730  -17.3100   -0.8730 N.pl3 315  ARG315      0.1354
    148  N         13.8500  -15.3200    5.4750 N.am  316  TYR316     -0.1974
    149  CA        13.4590  -15.3730    6.8780 C.3   316  TYR316      0.1639
    150  C         11.9560  -15.5700    6.9640 C.2   316  TYR316      0.2290
    151  O         11.2150  -15.1890    6.0550 O.2   316  TYR316     -0.2864
    152  CB        13.7560  -14.0600    7.6010 C.3   316  TYR316      0.0560
    153  CG        15.1600  -13.8940    8.1060 C.ar  316  TYR316     -0.0198
    154  CD1       16.1330  -13.2730    7.3290 C.ar  316  TYR316     -0.0009
    155  CD2       15.5090  -14.3200    9.3890 C.ar  316  TYR316     -0.0009
    156  CE1       17.4180  -13.0740    7.8180 C.ar  316  TYR316      0.0417
    157  CE2       16.7860  -14.1290    9.8840 C.ar  316  TYR316      0.0417
    158  CZ        17.7370  -13.5040    9.0960 C.ar  316  TYR316      0.1957
    159  OH        19.0010  -13.3010    9.5910 O.3   316  TYR316     -0.2866
    160  N         14.1690   -7.6190    7.5970 N.3   334  ALA334     -0.1231
    161  CA        13.4260   -7.0690    6.4740 C.3   334  ALA334      0.1694
    162  C         12.9280   -8.2350    5.6350 C.2   334  ALA334      0.2592
    163  O         13.6840   -9.1670    5.3420 O.2   334  ALA334     -0.2718
    164  CB        14.3200   -6.1660    5.6400 C.3   334  ALA334      0.0304
    165  N         11.6500   -8.1860    5.2740 N.am  335  PHE335     -0.1962
    166  CA        11.0220   -9.2250    4.4670 C.3   335  PHE335      0.1771
    167  C         10.6940   -8.6480    3.0980 C.2   335  PHE335      0.2620
    168  O         10.1630   -7.5370    2.9930 O.2   335  PHE335     -0.2715
    169  CB         9.7350   -9.7050    5.1390 C.3   335  PHE335      0.0574
    170  CG         9.9540  -10.3410    6.4780 C.ar  335  PHE335     -0.0200
    171  CD1       10.2250  -11.7030    6.5790 C.ar  335  PHE335     -0.0042
    172  CD2        9.8950   -9.5770    7.6400 C.ar  335  PHE335     -0.0042
    173  CE1       10.4340  -12.2980    7.8230 C.ar  335  PHE335     -0.0003
    174  CE2       10.1020  -10.1580    8.8870 C.ar  335  PHE335     -0.0003
    175  CZ        10.3720  -11.5230    8.9800 C.ar  335  PHE335     -0.0000
    176  N         11.0220   -9.3990    2.0510 N.am  336  GLY336     -0.1940
    177  CA        10.7380   -8.9430    0.7040 C.3   336  GLY336      0.2014
    178  C          9.5020   -9.6190    0.1340 C.2   336  GLY336      0.2639
    179  O          8.4270   -9.0230    0.0700 O.2   336  GLY336     -0.2714
    180  N          9.6530  -10.8770   -0.2680 N.am  337  ALA337     -0.1963
    181  CA         8.5490  -11.6310   -0.8480 C.3   337  ALA337      0.1728
    182  C          7.2810  -11.6220    0.0030 C.2   337  ALA337      0.2616
    183  O          6.1770  -11.4780   -0.5240 O.2   337  ALA337     -0.2715
    184  CB         8.9890  -13.0700   -1.1120 C.3   337  ALA337      0.0334
    185  N          7.4330  -11.7710    1.3150 N.am  338  LYS338     -0.1977
    186  CA         6.2740  -11.7950    2.1970 C.3   338  LYS338      0.1596
    187  C          5.5090  -10.4780    2.2560 C.2   338  LYS338      0.2287
    188  O          4.3030  -10.4730    2.5200 O.2   338  LYS338     -0.2864
    189  CB         6.6860  -12.2420    3.6010 C.3   338  LYS338      0.0298
    190  CG         7.0310  -13.7280    3.6730 C.3   338  LYS338      0.0038
    191  CD         7.3970  -14.1540    5.0890 C.3   338  LYS338      0.0206
    192  CE         7.6570  -15.6550    5.1750 C.3   338  LYS338      0.1093
    193  NZ         8.8850  -16.0780    4.4420 N.3   338  LYS338     -0.1314
    194  N          5.3750   -8.4140   -0.3800 N.3   340  ILE340     -0.1245
    195  CA         4.7520   -8.2720   -1.6900 C.3   340  ILE340      0.1561
    196  C          3.3760   -8.9320   -1.6240 C.2   340  ILE340      0.2260
    197  O          2.3720   -8.3580   -2.0450 O.2   340  ILE340     -0.2867
    198  CB         5.5680   -8.9840   -2.7960 C.3   340  ILE340      0.0252
    199  CG1        6.8730   -8.2300   -3.0600 C.3   340  ILE340      0.0019
    200  CG2        4.7410   -9.0840   -4.0840 C.3   340  ILE340      0.0019
    201  CD1        7.7570   -8.8990   -4.0980 C.3   340  ILE340      0.0001
    202  N          5.5980  -10.2900  -10.2740 N.3   363  TYR363     -0.1227
    203  CA         6.2490   -9.2060   -9.5410 C.3   363  TYR363      0.1736
    204  C          6.4310   -7.9040  -10.3230 C.2   363  TYR363      0.2595
    205  O          6.4260   -6.8200   -9.7380 O.2   363  TYR363     -0.2718
    206  CB         7.6330   -9.6430   -9.0440 C.3   363  TYR363      0.0548
    207  CG         7.6480  -10.6550   -7.9150 C.ar  363  TYR363     -0.0200
    208  CD1        6.5150  -10.9000   -7.1430 C.ar  363  TYR363     -0.0009
    209  CD2        8.8250  -11.3320   -7.5880 C.ar  363  TYR363     -0.0009
    210  CE1        6.5540  -11.7950   -6.0670 C.ar  363  TYR363      0.0417
    211  CE2        8.8740  -12.2230   -6.5180 C.ar  363  TYR363      0.0417
    212  CZ         7.7380  -12.4480   -5.7630 C.ar  363  TYR363      0.1957
    213  OH         7.7940  -13.3140   -4.6980 O.3   363  TYR363     -0.2866
    214  N          6.5850   -8.0070  -11.6400 N.am  364  TYR364     -0.1976
    215  CA         6.8340   -6.8260  -12.4660 C.3   364  TYR364      0.1639
    216  C          5.8360   -6.6010  -13.6050 C.2   364  TYR364      0.2290
    217  O          6.2350   -6.2030  -14.6970 O.2   364  TYR364     -0.2864
    218  CB         8.2340   -6.9350  -13.0780 C.3   364  TYR364      0.0560
    219  CG         9.3410   -7.3180  -12.1150 C.ar  364  TYR364     -0.0198
    220  CD1       10.0180   -6.3510  -11.3760 C.ar  364  TYR364     -0.0009
    221  CD2        9.7370   -8.6490  -11.9740 C.ar  364  TYR364     -0.0009
    222  CE1       11.0710   -6.6990  -10.5240 C.ar  364  TYR364      0.0417
    223  CE2       10.7840   -9.0040  -11.1260 C.ar  364  TYR364      0.0417
    224  CZ        11.4470   -8.0260  -10.4070 C.ar  364  TYR364      0.1957
    225  OH        12.4940   -8.3730   -9.5750 O.3   364  TYR364     -0.2866
@<TRIPOS>BOND
     1    46    47    2
     2    46    45    1
     3   217   216    2
     4    44    45    1
     5    45    48    1
     6   216   215    1
     7   218   215    1
     8   218   219    1
     9    48    49    1
    10   215   214    1
    11   219   221   ar
    12   219   220   ar
    13    50    49   ar
    14    50    52   ar
    15   221   223   ar
    16    49    51   ar
    17   214   204   am
    18   220   222   ar
    19   223   224   ar
    20    52    54   ar
    21    31    30    2
    22    51    53   ar
    23   222   224   ar
    24   224   225    1
    25   204   205    2
    26   204   203    1
    27   202   203    1
    28    91    89   ar
    29    91    92   ar
    30    30    29    1
    31    54    53   ar
    32    89    87   ar
    33    93    92    1
    34    27    25    1
    35   203   206    1
    36    92    90   ar
    37   206   207    1
    38    29    28    1
    39    29    32    1
    40    83    84    1
    41    83    86    1
    42    83    82    1
    43    87    86    1
    44    87    88   ar
    45    84    85    2
    46    25    26    1
    47    25    22    1
    48    28    23   am
    49    24    23    2
    50    90    88   ar
    51   207   209   ar
    52   207   208   ar
    53    23    22    1
    54    32    33    1
    55    77    76    2
    56   209   211   ar
    57    22    21    1
    58    37    36    1
    59    42    41    2
    60   208   210   ar
    61    35    36    2
    62    35    34    1
    63    76    75    1
    64    36    38    1
    65   211   212   ar
    66    33    34    1
    67    41    40    1
    68    43    40    1
    69   210   212   ar
    70    21    15   am
    71   212   213    1
    72    78    75    1
    73    78    79    1
    74    75    74    1
    75    40    39    1
    76   116   115    2
    77   115   114    1
    78    16    15    2
    79    15    14    1
    80   117   114    1
    81   117   118    1
    82   120   119    1
    83    73    71   ar
    84    73    72   ar
    85    71    69   ar
    86    79    81   am
    87    79    80    2
    88   201   199    1
    89   114   113    1
    90   200   198    1
    91   118   119    1
    92    72    70   ar
    93    69    70   ar
    94    69    68    1
    95    14    17    1
    96    14    13    1
    97    67    66    2
    98    68    65    1
    99    58    57    2
   100    17    18    1
   101    62    61    2
   102   199   198    1
   103   198   195    1
   104   146   145    1
   105    13     8   am
   106    20    18    1
   107    66    65    1
   108    57    56    1
   109    61    60    1
   110    61    63   am
   111     9     8    2
   112    65    64    1
   113   197   196    2
   114    18    19    1
   115     8     7    1
   116   195   196    1
   117   195   194    1
   118    60    59    1
   119    59    56    1
   120   145   147    1
   121   145   144    2
   122    56    55    1
   123   184   181    1
   124    10     7    1
   125    10    11    1
   126   112   110    1
   127   181   180    1
   128   181   182    1
   129     7     6    1
   130   144   143    1
   131   183   182    2
   132   104   102    1
   133    11    12    1
   134   180   178   am
   135   182   185   am
   136   179   178    2
   137   178   177    1
   138   135   134    1
   139     6    12    1
   140     6     3   am
   141     4     3    2
   142   110   111    1
   143   110   109    1
   144   177   176    1
   145   143   142    1
   146    97    96    2
   147   100   101    1
   148   100    99    1
   149   102   101    2
   150   102   103    1
   151   136   134    1
   152     3     2    1
   153   142   141    1
   154   109   106    1
   155   185   186    1
   156   134   133    1
   157    98    99    1
   158    98    95    1
   159    96    95    1
   160     5     2    1
   161   128   126   am
   162   176   167   am
   163   186   187    1
   164   186   189    1
   165   187   188    2
   166     2     1    1
   167   133   130    1
   168    95    94    1
   169   141   138    1
   170   106   105    1
   171   106   107    1
   172   168   167    2
   173   130   131    1
   174   130   129    1
   175   137   138    1
   176   137   131   am
   177   127   126    2
   178   126   125    1
   179   167   166    1
   180   108   107    2
   181   138   139    1
   182   131   132    2
   183   189   190    1
   184   190   191    1
   185   129   123   am
   186   125   122    1
   187   124   123    2
   188   193   192    1
   189   123   122    1
   190   166   169    1
   191   166   165    1
   192   139   140    2
   193   139   148   am
   194   191   192    1
   195   169   170    1
   196   122   121    1
   197   165   162   am
   198   163   162    2
   199   148   149    1
   200   162   161    1
   201   164   161    1
   202   151   150    2
   203   161   160    1
   204   170   171   ar
   205   170   172   ar
   206   171   173   ar
   207   149   150    1
   208   149   152    1
   209   154   156   ar
   210   154   153   ar
   211   152   153    1
   212   172   174   ar
   213   156   158   ar
   214   173   175   ar
   215   153   155   ar
   216   174   175   ar
   217   158   159    1
   218   158   157   ar
   219   155   157   ar
