@<TRIPOS>MOLECULE
tmp/3atzB01.pdb
 124 120 0 0 0
SMALL
GASTEIGER

@<TRIPOS>ATOM
      1  N          0.1980    6.9720  105.4600 N.3    27  THR27      -0.1218
      2  CA        -1.0480    7.4160  106.0750 C.3    27  THR27       0.1862
      3  C         -1.5360    8.6500  105.3220 C.2    27  THR27       0.2287
      4  O         -0.8160    9.6460  105.2340 O.2    27  THR27      -0.2866
      5  CB        -0.8220    7.7870  107.5590 C.3    27  THR27       0.1770
      6  OG1       -0.5060    6.6040  108.2960 O.3    27  THR27      -0.2211
      7  CG2       -2.0630    8.4390  108.1560 C.3    27  THR27       0.0375
      8  N         -0.8110    2.5540  107.3970 N.3    60  ALA60      -0.1245
      9  CA        -1.0180    2.0430  108.7520 C.3    60  ALA60       0.1562
     10  C         -2.5050    1.8920  109.0530 C.2    60  ALA60       0.2260
     11  O         -3.2500    2.8690  109.0390 O.2    60  ALA60      -0.2867
     12  CB        -0.3900    2.9870  109.7560 C.3    60  ALA60       0.0290
     13  N         -4.2040    8.9170  114.0210 N.3    70  PHE70      -0.1241
     14  CA        -4.2480    9.8660  112.9110 C.3    70  PHE70       0.1605
     15  C         -5.6480   10.4230  112.6850 C.2    70  PHE70       0.2264
     16  O         -5.9310   11.0160  111.6430 O.2    70  PHE70      -0.2867
     17  CB        -3.7450    9.1860  111.6350 C.3    70  PHE70       0.0534
     18  CG        -2.5190    8.3510  111.8500 C.ar   70  PHE70      -0.0203
     19  CD1       -1.3890    8.8970  112.4580 C.ar   70  PHE70      -0.0042
     20  CD2       -2.5080    7.0080  111.5030 C.ar   70  PHE70      -0.0042
     21  CE1       -0.2690    8.1100  112.7240 C.ar   70  PHE70      -0.0003
     22  CE2       -1.3920    6.2140  111.7640 C.ar   70  PHE70      -0.0003
     23  CZ        -0.2730    6.7670  112.3770 C.ar   70  PHE70      -0.0000
     24  N         -2.8600   18.2760  111.8980 N.3   146  TYR146     -0.1227
     25  CA        -3.5240   17.3760  110.9550 C.3   146  TYR146      0.1736
     26  C         -3.9320   16.0100  111.5140 C.2   146  TYR146      0.2595
     27  O         -4.6250   15.2450  110.8420 O.2   146  TYR146     -0.2718
     28  CB        -2.6620   17.1870  109.6980 C.3   146  TYR146      0.0548
     29  CG        -1.2000   16.9040  109.9610 C.ar  146  TYR146     -0.0200
     30  CD1       -0.2660   17.9380  109.9970 C.ar  146  TYR146     -0.0009
     31  CD2       -0.7490   15.6030  110.1640 C.ar  146  TYR146     -0.0009
     32  CE1        1.0860   17.6790  110.2250 C.ar  146  TYR146      0.0417
     33  CE2        0.5990   15.3340  110.3940 C.ar  146  TYR146      0.0417
     34  CZ         1.5090   16.3760  110.4220 C.ar  146  TYR146      0.1957
     35  OH         2.8420   16.1080  110.6480 O.3   146  TYR146     -0.2866
     36  N         -3.5070   15.7060  112.7370 N.am  147  PHE147     -0.1976
     37  CA        -3.8530   14.4370  113.3850 C.3   147  PHE147      0.1639
     38  C         -4.7010   14.7330  114.6200 C.2   147  PHE147      0.2290
     39  O         -5.4170   13.8660  115.1210 O.2   147  PHE147     -0.2864
     40  CB        -2.5920   13.6840  113.8340 C.3   147  PHE147      0.0560
     41  CG        -1.8000   13.0650  112.7110 C.ar  147  PHE147     -0.0200
     42  CD1       -0.4720   12.6990  112.9140 C.ar  147  PHE147     -0.0042
     43  CD2       -2.3740   12.8300  111.4660 C.ar  147  PHE147     -0.0042
     44  CE1        0.2740   12.1100  111.8930 C.ar  147  PHE147     -0.0003
     45  CE2       -1.6370   12.2410  110.4380 C.ar  147  PHE147     -0.0003
     46  CZ        -0.3120   11.8810  110.6530 C.ar  147  PHE147     -0.0000
     47  N          3.6850   -3.1900  112.0030 N.3   194  HIS194     -0.1241
     48  CA         4.2830   -1.8820  112.2360 C.3   194  HIS194      0.1621
     49  C          5.0880   -1.8550  113.5340 C.2   194  HIS194      0.2264
     50  O          4.5400   -1.6500  114.6180 O.2   194  HIS194     -0.2867
     51  CB         3.2070   -0.7930  112.2690 C.3   194  HIS194      0.0745
     52  CG         3.7320    0.5800  111.9760 C.ar  194  HIS194      0.0817
     53  ND1        5.0180    0.9690  112.2880 N.ar  194  HIS194     -0.2268
     54  CD2        3.1420    1.6580  111.4060 C.ar  194  HIS194      0.1154
     55  CE1        5.1980    2.2250  111.9180 C.ar  194  HIS194      0.1986
     56  NE2        4.0760    2.6670  111.3800 N.ar  194  HIS194     -0.2212
     57  N          8.5770    3.8000  113.9030 N.3   197  ASN197     -0.1240
     58  CA         8.1320    5.1640  114.1390 C.3   197  ASN197      0.1653
     59  C          7.4670    5.5430  115.4550 C.2   197  ASN197      0.2266
     60  O          6.5470    6.3580  115.4700 O.2   197  ASN197     -0.2867
     61  CB         7.2470    5.5800  112.9700 C.3   197  ASN197      0.1155
     62  CG         7.9290    5.3510  111.6390 C.2   197  ASN197      0.2627
     63  OD1        9.1320    5.5620  111.5170 O.2   197  ASN197     -0.2716
     64  ND2        7.1720    4.9220  110.6370 N.am  197  ASN197     -0.0877
     65  N          5.4760    3.8570  117.4910 N.3   199  TYR199     -0.1241
     66  CA         4.1960    3.2970  117.8810 C.3   199  TYR199      0.1605
     67  C          4.3830    2.1470  118.8700 C.2   199  TYR199      0.2264
     68  O          5.5060    1.8670  119.2910 O.2   199  TYR199     -0.2867
     69  CB         3.4080    2.9000  116.6310 C.3   199  TYR199      0.0534
     70  CG         3.1540    4.1210  115.7790 C.ar  199  TYR199     -0.0201
     71  CD1        3.6520    4.2140  114.4810 C.ar  199  TYR199     -0.0009
     72  CD2        2.5130    5.2400  116.3200 C.ar  199  TYR199     -0.0009
     73  CE1        3.5280    5.4050  113.7450 C.ar  199  TYR199      0.0417
     74  CE2        2.3830    6.4250  115.6000 C.ar  199  TYR199      0.0417
     75  CZ         2.8960    6.5030  114.3170 C.ar  199  TYR199      0.1957
     76  OH         2.8060    7.6900  113.6320 O.3   199  TYR199     -0.2866
     77  N          8.2180   -4.1280  109.7060 N.3   248  ARG248     -0.1245
     78  CA         8.8710   -2.8430  109.4950 C.3   248  ARG248      0.1563
     79  C          9.4430   -2.2620  110.7840 C.2   248  ARG248      0.2260
     80  O          8.7820   -2.2530  111.8280 O.2   248  ARG248     -0.2867
     81  CB         7.9070   -1.8280  108.8580 C.3   248  ARG248      0.0307
     82  CG         8.6740   -0.6480  108.2500 C.3   248  ARG248      0.0489
     83  CD         7.8220    0.4860  107.6940 C.3   248  ARG248      0.2205
     84  NE         8.5220    1.1070  106.5690 N.pl3 248  ARG248     -0.0865
     85  CZ         8.3630    2.3620  106.1530 C.cat 248  ARG248      0.5346
     86  NH1        9.0560    2.7990  105.1100 N.pl3 248  ARG248      0.1354
     87  NH2        7.5330    3.1850  106.7780 N.pl3 248  ARG248      0.1354
     88  N         11.3630   10.2260  115.6480 N.3   255  VAL255     -0.1231
     89  CA        10.0150   10.7600  115.7990 C.3   255  VAL255      0.1692
     90  C          9.3600   10.2010  117.0590 C.2   255  VAL255      0.2592
     91  O          9.6180    9.0620  117.4510 O.2   255  VAL255     -0.2718
     92  CB         9.1290   10.4210  114.5790 C.3   255  VAL255      0.0266
     93  CG1        9.6700   11.1060  113.3430 C.3   255  VAL255      0.0020
     94  CG2        9.0790    8.9170  114.3710 C.3   255  VAL255      0.0020
     95  N          8.5200   11.0140  117.6910 N.am  256  HIS256     -0.1976
     96  CA         7.8210   10.6270  118.9150 C.3   256  HIS256      0.1656
     97  C          8.7740   10.2470  120.0410 C.2   256  HIS256      0.2291
     98  O          8.5660    9.2450  120.7260 O.2   256  HIS256     -0.2864
     99  CB         6.8600    9.4610  118.6540 C.3   256  HIS256      0.0771
    100  CG         5.8020    9.7660  117.6430 C.ar  256  HIS256      0.0820
    101  ND1        5.0790   10.9400  117.6550 N.ar  256  HIS256     -0.2267
    102  CD2        5.3430    9.0520  116.5880 C.ar  256  HIS256      0.1154
    103  CE1        4.2230   10.9370  116.6480 C.ar  256  HIS256      0.1986
    104  NE2        4.3630    9.8030  115.9850 N.ar  256  HIS256     -0.2212
    105  N         14.3930   10.5910  110.2000 N.3   289  MET289     -0.1245
    106  CA        13.7080   11.6300  109.4510 C.3   289  MET289      0.1570
    107  C         14.0620   13.0260  109.9750 C.2   289  MET289      0.2261
    108  O         13.7830   14.0230  109.3120 O.2   289  MET289     -0.2867
    109  CB        12.1930   11.4060  109.4910 C.3   289  MET289      0.0387
    110  CG        11.7730   10.1050  108.8220 C.3   289  MET289      0.0595
    111  SD        10.0120    9.9980  108.4760 S.3   289  MET289     -0.1393
    112  CE         9.3660    9.6700  110.0990 C.3   289  MET289      0.0692
    113  N         -2.1000   15.5770  103.9640 N.3   363  TYR363     -0.1241
    114  CA        -3.2800   15.2040  104.7490 C.3   363  TYR363      0.1605
    115  C         -4.5080   16.1100  104.5870 C.2   363  TYR363      0.2264
    116  O         -5.0630   16.5590  105.5850 O.2   363  TYR363     -0.2867
    117  CB        -2.9180   15.1920  106.2410 C.3   363  TYR363      0.0534
    118  CG        -1.5720   14.5900  106.5710 C.ar  363  TYR363     -0.0201
    119  CD1       -1.3900   13.2100  106.5960 C.ar  363  TYR363     -0.0009
    120  CD2       -0.4760   15.4060  106.8550 C.ar  363  TYR363     -0.0009
    121  CE1       -0.1490   12.6520  106.8960 C.ar  363  TYR363      0.0417
    122  CE2        0.7720   14.8600  107.1540 C.ar  363  TYR363      0.0417
    123  CZ         0.9250   13.4800  107.1730 C.ar  363  TYR363      0.1957
    124  OH         2.1500   12.9290  107.4670 O.3   363  TYR363     -0.2866
@<TRIPOS>BOND
     1   113   114    1
     2   115   114    1
     3   115   116    2
     4   114   117    1
     5    86    85    1
     6     4     3    2
     7     3     2    1
     8     1     2    1
     9     2     5    1
    10    85    84    2
    11    85    87    1
    12   117   118    1
    13    84    83    1
    14   118   119   ar
    15   118   120   ar
    16   119   121   ar
    17   120   122   ar
    18   121   123   ar
    19   122   123   ar
    20   123   124    1
    21     8     9    1
    22     5     7    1
    23     5     6    1
    24    83    82    1
    25    82    81    1
    26   111   110    1
    27   111   112    1
    28     9    10    1
    29     9    12    1
    30   110   109    1
    31    81    78    1
    32    11    10    2
    33   108   107    2
    34   106   109    1
    35   106   107    1
    36   106   105    1
    37    78    77    1
    38    78    79    1
    39    28    29    1
    40    28    25    1
    41    29    30   ar
    42    29    31   ar
    43    30    32   ar
    44    31    33   ar
    45    32    34   ar
    46    33    34   ar
    47    34    35    1
    48    45    46   ar
    49    45    43   ar
    50    64    62   am
    51    46    44   ar
    52    79    80    2
    53    27    26    2
    54    25    26    1
    55    25    24    1
    56    56    54   ar
    57    56    55   ar
    58    54    52   ar
    59    43    41   ar
    60    20    22   ar
    61    20    18   ar
    62    26    36   am
    63    63    62    2
    64    17    18    1
    65    17    14    1
    66    62    61    1
    67    16    15    2
    68    22    23   ar
    69    18    19   ar
    70    44    42   ar
    71    55    53   ar
    72    52    51    1
    73    52    53   ar
    74    47    48    1
    75    48    51    1
    76    48    49    1
    77    23    21   ar
    78    19    21   ar
    79    15    14    1
    80    41    42   ar
    81    41    40    1
    82    36    37    1
    83    14    13    1
    84    61    58    1
    85    93    92    1
    86    37    40    1
    87    37    38    1
    88    49    50    2
    89    76    75    1
    90    73    75   ar
    91    73    71   ar
    92    57    58    1
    93    58    59    1
    94    75    74   ar
    95    94    92    1
    96    71    70   ar
    97    92    89    1
    98    38    39    2
    99    59    60    2
   100    74    72   ar
   101    88    89    1
   102    70    72   ar
   103    70    69    1
   104    89    90    1
   105   104   102   ar
   106   104   103   ar
   107   102   100   ar
   108    69    66    1
   109   103   101   ar
   110    90    91    2
   111    90    95   am
   112    65    66    1
   113   100   101   ar
   114   100    99    1
   115    95    96    1
   116    66    67    1
   117    99    96    1
   118    67    68    2
   119    96    97    1
   120    97    98    2
