@<TRIPOS>MOLECULE
tmp/3au9B01.pdb
 136 126 0 0 0
SMALL
GASTEIGER

@<TRIPOS>ATOM
      1  N         17.1440   14.7470   41.9970 N.3   129  LYS129     -0.1245
      2  CA        16.8990   13.4740   42.6670 C.3   129  LYS129      0.1561
      3  C         17.1110   13.5690   44.1750 C.2   129  LYS129      0.2260
      4  O         16.5040   12.8200   44.9320 O.2   129  LYS129     -0.2867
      5  CB        17.7700   12.3600   42.0710 C.3   129  LYS129      0.0271
      6  CG        19.2620   12.6290   42.1010 C.3   129  LYS129      0.0035
      7  CD        19.9920   11.6370   41.1950 C.3   129  LYS129      0.0206
      8  CE        20.1180   12.1770   39.7970 C.3   129  LYS129      0.1093
      9  NZ        20.7280   11.1760   38.8890 N.3   129  LYS129     -0.1314
     10  N         14.9090   12.4970   35.5080 N.3   155  ASP155     -0.1225
     11  CA        16.1090   11.6430   35.5630 C.3   155  ASP155      0.1805
     12  C         15.9820   10.5550   34.4690 C.2   155  ASP155      0.2598
     13  O         14.9350    9.9290   34.3500 O.2   155  ASP155     -0.2718
     14  CB        16.2280   11.0180   36.9610 C.3   155  ASP155      0.1424
     15  CG        17.6630   10.6810   37.3400 C.2   155  ASP155      0.3668
     16  OD1       18.5220   10.6930   36.4480 O.co2 155  ASP155     -0.2456
     17  OD2       17.9370   10.4160   38.5380 O.co2 155  ASP155     -0.2456
     18  N         17.0170   10.3430   33.6540 N.am  156  SER156     -0.1938
     19  CA        16.8420    9.5400   32.4350 C.3   156  SER156      0.2055
     20  C         16.3900    8.1140   32.7000 C.2   156  SER156      0.2642
     21  O         15.5860    7.5840   31.9490 O.2   156  SER156     -0.2714
     22  CB        18.0850    9.5650   31.5260 C.3   156  SER156      0.2130
     23  OG        19.1350    8.7680   32.0420 O.3   156  SER156     -0.2179
     24  N         16.8920    7.4950   33.7690 N.am  157  GLU157     -0.1976
     25  CA        16.4990    6.1220   34.0900 C.3   157  GLU157      0.1602
     26  C         15.0450    6.0500   34.4960 C.2   157  GLU157      0.2287
     27  O         14.3420    5.1390   34.1040 O.2   157  GLU157     -0.2864
     28  CB        17.3890    5.5190   35.1830 C.3   157  GLU157      0.0415
     29  CG        18.8680    5.5410   34.8160 C.3   157  GLU157      0.1163
     30  CD        19.5320    6.8600   35.1260 C.2   157  GLU157      0.3649
     31  OE1       18.8480    7.7950   35.6090 O.co2 157  GLU157     -0.2457
     32  OE2       20.7490    6.9770   34.8800 O.co2 157  GLU157     -0.2457
     33  N         23.2660    1.8490   34.1630 N.3   193  SER193     -0.1202
     34  CA        24.2820    2.8500   34.4630 C.3   193  SER193      0.2020
     35  C         25.4320    2.7530   33.4790 C.2   193  SER193      0.2619
     36  O         25.8440    1.6540   33.1420 O.2   193  SER193     -0.2717
     37  CB        24.8290    2.6180   35.8660 C.3   193  SER193      0.2103
     38  OG        25.9080    3.4970   36.1280 O.3   193  SER193     -0.2182
     39  N         25.9860    3.8910   33.0550 N.am  194  SER194     -0.1951
     40  CA        27.2140    3.8520   32.2400 C.3   194  SER194      0.1924
     41  C         28.3690    3.2080   32.9900 C.2   194  SER194      0.2314
     42  O         29.3010    2.7000   32.3740 O.2   194  SER194     -0.2863
     43  CB        27.6360    5.2540   31.7900 C.3   194  SER194      0.2116
     44  OG        28.2140    5.9690   32.8570 O.3   194  SER194     -0.2180
     45  N         30.3460    4.9490   34.8580 N.3   196  GLY196     -0.1225
     46  CA        31.2620    6.0680   35.0840 C.3   196  GLY196      0.1811
     47  C         32.6590    5.8500   34.5250 C.2   196  GLY196      0.2280
     48  O         32.9020    4.8730   33.8110 O.2   196  GLY196     -0.2866
     49  N         33.5710   12.2040   32.3920 N.3   217  HIS217     -0.1241
     50  CA        32.5580   11.1830   32.1770 C.3   217  HIS217      0.1621
     51  C         32.5660   10.7180   30.7220 C.2   217  HIS217      0.2264
     52  O         32.5930   11.5460   29.8120 O.2   217  HIS217     -0.2867
     53  CB        31.1690   11.6720   32.5770 C.3   217  HIS217      0.0745
     54  CG        30.2260   10.5520   32.8840 C.ar  217  HIS217      0.0817
     55  ND1       29.6000    9.8190   31.8970 N.ar  217  HIS217     -0.2268
     56  CD2       29.8390   10.0110   34.0630 C.ar  217  HIS217      0.1154
     57  CE1       28.8510    8.8850   32.4600 C.ar  217  HIS217      0.1986
     58  NE2       28.9730    8.9860   33.7730 N.ar  217  HIS217     -0.2212
     59  N         28.0680   11.1910   29.5050 N.3   220  TRP220     -0.1241
     60  CA        27.1660   12.2980   29.8250 C.3   220  TRP220      0.1605
     61  C         27.9410   13.5770   30.1380 C.2   220  TRP220      0.2264
     62  O         28.9650   13.5310   30.8040 O.2   220  TRP220     -0.2867
     63  CB        26.2770   11.9450   31.0310 C.3   220  TRP220      0.0550
     64  CG        25.3460   10.7560   30.8560 C.ar  220  TRP220      0.0003
     65  CD1       25.6240    9.4510   31.1260 C.ar  220  TRP220      0.0946
     66  CD2       23.9830   10.7870   30.4030 C.ar  220  TRP220      0.0152
     67  NE1       24.5210    8.6600   30.8570 N.ar  220  TRP220     -0.2442
     68  CE2       23.5020    9.4590   30.4140 C.ar  220  TRP220      0.0810
     69  CE3       23.1240   11.8100   29.9850 C.ar  220  TRP220      0.0012
     70  CZ2       22.1970    9.1260   30.0270 C.ar  220  TRP220      0.0191
     71  CZ3       21.8270   11.4770   29.5990 C.ar  220  TRP220      0.0001
     72  CH2       21.3780   10.1460   29.6240 C.ar  220  TRP220      0.0015
     73  N         27.4930   16.9470   32.2290 N.3   222  MET222     -0.1245
     74  CA        26.6130   17.3260   33.3380 C.3   222  MET222      0.1570
     75  C         27.3060   18.2780   34.2850 C.2   222  MET222      0.2261
     76  O         28.4980   18.5300   34.1480 O.2   222  MET222     -0.2867
     77  CB        26.1850   16.0860   34.1440 C.3   222  MET222      0.0387
     78  CG        25.6800   14.9000   33.3220 C.3   222  MET222      0.0595
     79  SD        25.3040   13.4450   34.3160 S.3   222  MET222     -0.1393
     80  CE        26.9390   12.8100   34.6660 C.3   222  MET222      0.0692
     81  N         26.7200   15.8830   40.1780 N.3   226  ILE226     -0.1245
     82  CA        26.2900   14.5800   39.6290 C.3   226  ILE226      0.1561
     83  C         27.4320   13.8190   38.9310 C.2   226  ILE226      0.2260
     84  O         27.4580   12.5790   38.9290 O.2   226  ILE226     -0.2867
     85  CB        25.0510   14.6990   38.7040 C.3   226  ILE226      0.0252
     86  CG1       24.4970   13.3030   38.3800 C.3   226  ILE226      0.0019
     87  CG2       25.3710   15.5060   37.4230 C.3   226  ILE226      0.0019
     88  CD1       23.0830   13.3290   37.8030 C.3   226  ILE226      0.0001
     89  N         28.5510   10.1010   39.7450 N.3   230  SER230     -0.1217
     90  CA        28.5970    9.0630   38.7130 C.3   230  SER230      0.1889
     91  C         29.9010    8.2600   38.7870 C.2   230  SER230      0.2288
     92  O         29.9110    7.0520   38.5260 O.2   230  SER230     -0.2866
     93  CB        28.4270    9.6950   37.3350 C.3   230  SER230      0.2089
     94  OG        27.1890   10.3900   37.2930 O.3   230  SER230     -0.2183
     95  N         29.5210    6.0110   41.6660 N.3   233  MET233     -0.1245
     96  CA        28.2380    5.3030   41.5330 C.3   233  MET233      0.1570
     97  C         27.2920    5.5780   42.6980 C.2   233  MET233      0.2261
     98  O         26.2870    4.8990   42.8470 O.2   233  MET233     -0.2867
     99  CB        28.4100    3.7900   41.2910 C.3   233  MET233      0.0387
    100  CG        29.1210    3.4680   39.9680 C.3   233  MET233      0.0595
    101  SD        28.9290    1.7720   39.4090 S.3   233  MET233     -0.1393
    102  CE        27.2690    1.7890   38.7280 C.3   233  MET233      0.0692
    103  N         25.6550    8.1140   42.4410 N.3   235  ASN235     -0.1225
    104  CA        24.5260    8.5300   41.6060 C.3   235  ASN235      0.1785
    105  C         23.5050    7.4120   41.4810 C.2   235  ASN235      0.2597
    106  O         22.3260    7.6090   41.7480 O.2   235  ASN235     -0.2718
    107  CB        24.9730    9.0060   40.2260 C.3   235  ASN235      0.1169
    108  CG        23.8000    9.5200   39.3850 C.2   235  ASN235      0.2627
    109  OD1       23.0630   10.4150   39.8110 O.2   235  ASN235     -0.2716
    110  ND2       23.6140    8.9370   38.2060 N.am  235  ASN235     -0.0877
    111  N         23.9820    6.2300   41.0960 N.am  236  LYS236     -0.1980
    112  CA        23.1560    5.0640   40.9650 C.3   236  LYS236      0.1596
    113  C         22.4980    4.6870   42.2880 C.2   236  LYS236      0.2287
    114  O         21.3390    4.2750   42.3120 O.2   236  LYS236     -0.2864
    115  CB        23.9970    3.9070   40.4050 C.3   236  LYS236      0.0298
    116  CG        23.2780    3.0180   39.3760 C.3   236  LYS236      0.0038
    117  CD        22.3470    3.7660   38.3980 C.3   236  LYS236      0.0206
    118  CE        23.0820    4.8470   37.6060 C.3   236  LYS236      0.1093
    119  NZ        22.2170    5.3860   36.5130 N.3   236  LYS236     -0.1314
    120  N         19.6860    6.9340   42.8470 N.3   239  GLU239     -0.1245
    121  CA        18.6420    6.5130   41.9120 C.3   239  GLU239      0.1567
    122  C         17.8870    5.2550   42.3460 C.2   239  GLU239      0.2260
    123  O         16.7010    5.0950   42.0280 O.2   239  GLU239     -0.2867
    124  CB        19.2260    6.3520   40.5060 C.3   239  GLU239      0.0388
    125  CG        19.6950    7.6750   39.9280 C.3   239  GLU239      0.1160
    126  CD        20.1970    7.5570   38.5130 C.2   239  GLU239      0.3649
    127  OE1       20.3710    6.4280   38.0040 O.co2 239  GLU239     -0.2457
    128  OE2       20.4100    8.6060   37.8950 O.co2 239  GLU239     -0.2457
    129  N         19.7890   14.1830   27.5700 N.3   284  MET284     -0.1245
    130  CA        18.6960   14.5580   28.4760 C.3   284  MET284      0.1570
    131  C         17.5080   15.2630   27.8250 C.2   284  MET284      0.2261
    132  O         16.4640   15.4020   28.4450 O.2   284  MET284     -0.2867
    133  CB        19.2210   15.4150   29.6410 C.3   284  MET284      0.0387
    134  CG        20.0270   14.6320   30.6580 C.3   284  MET284      0.0595
    135  SD        19.2090   13.1520   31.3270 S.3   284  MET284     -0.1393
    136  CE        17.8740   13.8630   32.2900 C.3   284  MET284      0.0692
@<TRIPOS>BOND
     1   129   130    1
     2   131   132    2
     3   131   130    1
     4   130   133    1
     5    59    60    1
     6    71    72   ar
     7    71    69   ar
     8    72    70   ar
     9   133   134    1
    10    52    51    2
    11    60    61    1
    12    60    63    1
    13    69    66   ar
    14    70    68   ar
    15    61    62    2
    16    66    68   ar
    17    66    64   ar
    18    68    67   ar
    19   134   135    1
    20    51    50    1
    21    64    63    1
    22    64    65   ar
    23    67    65   ar
    24   135   136    1
    25    22    23    1
    26    22    19    1
    27    43    40    1
    28    43    44    1
    29    55    57   ar
    30    55    54   ar
    31    21    20    2
    32    50    49    1
    33    50    53    1
    34    73    74    1
    35    40    41    1
    36    40    39    1
    37    42    41    2
    38    19    20    1
    39    19    18    1
    40    57    58   ar
    41    53    54    1
    42    20    24   am
    43    54    56   ar
    44    39    35   am
    45    36    35    2
    46    78    77    1
    47    78    79    1
    48    74    77    1
    49    74    75    1
    50    35    34    1
    51    18    12   am
    52    24    25    1
    53    58    56   ar
    54    48    47    2
    55    25    26    1
    56    25    28    1
    57    27    26    2
    58    76    75    2
    59    33    34    1
    60    79    80    1
    61    13    12    2
    62    34    37    1
    63    12    11    1
    64    47    46    1
    65    29    30    1
    66    29    28    1
    67    45    46    1
    68    32    30   ar
    69    30    31   ar
    70    10    11    1
    71    11    14    1
    72    37    38    1
    73    16    15   ar
    74   119   118    1
    75    14    15    1
    76    94    93    1
    77    93    90    1
    78    15    17   ar
    79    87    85    1
    80   118   117    1
    81    88    86    1
    82   128   126   ar
    83   127   126   ar
    84   110   108   am
    85    86    85    1
    86   117   116    1
    87   126   125    1
    88    92    91    2
    89    85    82    1
    90    90    91    1
    91    90    89    1
    92   102   101    1
    93     9     8    1
    94    84    83    2
    95    83    82    1
    96   116   115    1
    97   108   109    2
    98   108   107    1
    99   101   100    1
   100    82    81    1
   101     8     7    1
   102   125   124    1
   103   100    99    1
   104   107   104    1
   105   115   112    1
   106   124   121    1
   107   112   111    1
   108   112   113    1
   109   111   105   am
   110     7     6    1
   111    99    96    1
   112   105   104    1
   113   105   106    2
   114    96    95    1
   115    96    97    1
   116   104   103    1
   117   121   122    1
   118   121   120    1
   119     1     2    1
   120   123   122    2
   121     5     6    1
   122     5     2    1
   123   113   114    2
   124     2     3    1
   125    97    98    2
   126     3     4    2
