@<TRIPOS>MOLECULE
tmp/3aujD00.pdb
 184 173 0 0 0
SMALL
GASTEIGER

@<TRIPOS>ATOM
      1  N         24.1600 -175.7340  184.5610 N.3   172  THR172     -0.1203
      2  CA        24.4250 -176.8610  183.6800 C.3   172  THR172      0.1994
      3  C         25.8780 -177.2600  183.8970 C.2   172  THR172      0.2618
      4  O         26.5730 -176.6410  184.7130 O.2   172  THR172     -0.2717
      5  CB        24.1460 -176.5310  182.1910 C.3   172  THR172      0.1784
      6  OG1       24.0930 -177.7550  181.4440 O.3   172  THR172     -0.2211
      7  CG2       25.2190 -175.6390  181.6150 C.3   172  THR172      0.0376
      8  N         26.3530 -178.2650  183.1670 N.am  173  VAL173     -0.1965
      9  CA        27.7080 -178.7570  183.3870 C.3   173  VAL173      0.1727
     10  C         28.7030 -178.8260  182.2250 C.2   173  VAL173      0.2616
     11  O         28.3370 -179.1170  181.0810 O.2   173  VAL173     -0.2715
     12  CB        27.6370 -180.1700  184.0070 C.3   173  VAL173      0.0290
     13  CG1       27.1470 -180.0980  185.4480 C.3   173  VAL173      0.0023
     14  CG2       26.6820 -181.0220  183.1930 C.3   173  VAL173      0.0023
     15  N         29.9690 -178.5610  182.5470 N.am  174  ALA174     -0.1977
     16  CA        31.0640 -178.6560  181.5850 C.3   174  ALA174      0.1597
     17  C         31.3970 -180.1560  181.5460 C.2   174  ALA174      0.2287
     18  O         31.5910 -180.7430  180.4800 O.2   174  ALA174     -0.2864
     19  CB        32.2740 -177.8560  182.0720 C.3   174  ALA174      0.0319
     20  N         29.6920 -183.5210  182.7150 N.3   176  ALA176     -0.1245
     21  CA        28.4300 -184.1210  183.1500 C.3   176  ALA176      0.1562
     22  C         28.4020 -184.7700  184.5360 C.2   176  ALA176      0.2260
     23  O         27.4000 -184.6720  185.2470 O.2   176  ALA176     -0.2867
     24  CB        27.9530 -185.1210  182.1000 C.3   176  ALA176      0.0290
     25  N         20.0960 -178.4610  183.9060 N.3   202  SER202     -0.1202
     26  CA        19.8730 -178.9760  182.5560 C.3   202  SER202      0.2020
     27  C         20.8700 -180.0100  182.0730 C.2   202  SER202      0.2619
     28  O         22.0440 -179.7150  181.8590 O.2   202  SER202     -0.2717
     29  CB        19.8210 -177.7980  181.5900 C.3   202  SER202      0.2103
     30  OG        18.8930 -176.8430  182.0770 O.3   202  SER202     -0.2182
     31  N         20.3690 -181.2240  181.8750 N.am  203  LEU203     -0.1965
     32  CA        21.1930 -182.3480  181.4590 C.3   203  LEU203      0.1728
     33  C         20.4280 -183.2320  180.4850 C.2   203  LEU203      0.2616
     34  O         19.3560 -182.8610  179.9960 O.2   203  LEU203     -0.2715
     35  CB        21.5490 -183.1810  182.6940 C.3   203  LEU203      0.0311
     36  CG        21.9810 -182.4190  183.9510 C.3   203  LEU203      0.0022
     37  CD1       21.8580 -183.3190  185.1820 C.3   203  LEU203      0.0001
     38  CD2       23.3940 -181.9250  183.7730 C.3   203  LEU203      0.0001
     39  N         20.9930 -184.4080  180.2130 N.am  204  GLU204     -0.1963
     40  CA        20.3550 -185.3920  179.3530 C.3   204  GLU204      0.1733
     41  C         19.0750 -185.7620  180.1250 C.2   204  GLU204      0.2616
     42  O         19.0870 -185.8290  181.3550 O.2   204  GLU204     -0.2715
     43  CB        21.2980 -186.5920  179.1730 C.3   204  GLU204      0.0429
     44  CG        20.7570 -187.7560  178.3640 C.3   204  GLU204      0.1163
     45  CD        19.8470 -188.6490  179.1820 C.2   204  GLU204      0.3649
     46  OE1       20.1590 -188.8560  180.3770 O.co2 204  GLU204     -0.2457
     47  OE2       18.8420 -189.1550  178.6350 O.co2 204  GLU204     -0.2457
     48  N         17.9790 -185.9810  179.4080 N.am  205  GLU205     -0.1977
     49  CA        16.6830 -186.2690  180.0210 C.3   205  GLU205      0.1602
     50  C         16.6420 -187.2540  181.1890 C.2   205  GLU205      0.2287
     51  O         16.2930 -186.8690  182.3030 O.2   205  GLU205     -0.2864
     52  CB        15.6830 -186.7080  178.9440 C.3   205  GLU205      0.0415
     53  CG        15.5300 -185.7160  177.7870 C.3   205  GLU205      0.1163
     54  CD        15.0530 -184.3310  178.2250 C.2   205  GLU205      0.3649
     55  OE1       14.8810 -184.1050  179.4450 O.co2 205  GLU205     -0.2457
     56  OE2       14.8520 -183.4630  177.3410 O.co2 205  GLU205     -0.2457
     57  N         14.5570 -177.5910  180.3140 N.3   222  THR222     -0.1218
     58  CA        15.0560 -178.0600  179.0370 C.3   222  THR222      0.1862
     59  C         14.5710 -179.4390  178.6300 C.2   222  THR222      0.2287
     60  O         15.3530 -180.2820  178.1930 O.2   222  THR222     -0.2866
     61  CB        16.5970 -178.0230  179.0110 C.3   222  THR222      0.1770
     62  OG1       17.1210 -178.8850  180.0300 O.3   222  THR222     -0.2211
     63  CG2       17.0870 -176.6060  179.2610 C.3   222  THR222      0.0375
     64  N         13.2050 -180.9180  176.0830 N.3   224  SER224     -0.1217
     65  CA        13.1130 -180.6530  174.6530 C.3   224  SER224      0.1889
     66  C         12.0870 -181.3390  173.7560 C.2   224  SER224      0.2288
     67  O         11.7270 -182.5010  173.9480 O.2   224  SER224     -0.2866
     68  CB        14.4950 -180.8780  174.0400 C.3   224  SER224      0.2089
     69  OG        14.8760 -182.2360  174.1840 O.3   224  SER224     -0.2183
     70  N         11.0030 -181.1150  169.3070 N.3   226  TYR226     -0.1241
     71  CA        11.4740 -180.6140  168.0240 C.3   226  TYR226      0.1605
     72  C         10.3880 -180.5780  166.9500 C.2   226  TYR226      0.2264
     73  O          9.3990 -181.3100  167.0310 O.2   226  TYR226     -0.2867
     74  CB        12.6700 -181.4470  167.5580 C.3   226  TYR226      0.0534
     75  CG        13.8060 -181.4790  168.5660 C.ar  226  TYR226     -0.0201
     76  CD1       13.8230 -182.4130  169.6040 C.ar  226  TYR226     -0.0009
     77  CD2       14.8640 -180.5700  168.4810 C.ar  226  TYR226     -0.0009
     78  CE1       14.8660 -182.4460  170.5300 C.ar  226  TYR226      0.0417
     79  CE2       15.9140 -180.5900  169.4000 C.ar  226  TYR226      0.0417
     80  CZ        15.9100 -181.5330  170.4220 C.ar  226  TYR226      0.1957
     81  OH        16.9540 -181.5670  171.3190 O.3   226  TYR226     -0.2866
     82  N         16.8040 -187.5460  166.4540 N.3   234  ASP234     -0.1225
     83  CA        18.1960 -187.3620  166.8430 C.3   234  ASP234      0.1805
     84  C         18.2230 -186.7230  168.2360 C.2   234  ASP234      0.2598
     85  O         19.2430 -186.7500  168.9260 O.2   234  ASP234     -0.2718
     86  CB        18.9480 -186.4880  165.8310 C.3   234  ASP234      0.1424
     87  CG        19.5690 -187.3030  164.6910 C.2   234  ASP234      0.3668
     88  OD1       19.5590 -188.5490  164.7630 O.co2 234  ASP234     -0.2456
     89  OD2       20.0780 -186.6980  163.7260 O.co2 234  ASP234     -0.2456
     90  N         17.0930 -186.1480  168.6440 N.am  235  GLY235     -0.1942
     91  CA        16.9960 -185.5470  169.9650 C.3   235  GLY235      0.2014
     92  C         16.7180 -186.6270  171.0050 C.2   235  GLY235      0.2638
     93  O         16.6080 -186.3470  172.2000 O.2   235  GLY235     -0.2714
     94  N         16.5900 -187.8630  170.5250 N.am  236  ASP236     -0.1971
     95  CA        16.3470 -189.0510  171.3470 C.3   236  ASP236      0.1709
     96  C         15.0000 -189.1190  172.0780 C.2   236  ASP236      0.2293
     97  O         14.9270 -189.5540  173.2280 O.2   236  ASP236     -0.2864
     98  CB        17.4970 -189.2370  172.3470 C.3   236  ASP236      0.1436
     99  CG        17.6980 -190.6950  172.7430 C.2   236  ASP236      0.3671
    100  OD1       17.3690 -191.5830  171.9260 O.co2 236  ASP236     -0.2456
    101  OD2       18.2040 -190.9570  173.8580 O.co2 236  ASP236     -0.2456
    102  N         11.0030 -177.1700  176.0970 N.3   259  THR259     -0.1218
    103  CA        11.8940 -176.2040  175.4880 C.3   259  THR259      0.1862
    104  C         11.9150 -176.5060  174.0070 C.2   259  THR259      0.2287
    105  O         11.8650 -177.6600  173.5960 O.2   259  THR259     -0.2866
    106  CB        13.3380 -176.2830  176.0310 C.3   259  THR259      0.1770
    107  OG1       13.3570 -175.8760  177.4030 O.3   259  THR259     -0.2211
    108  CG2       14.2510 -175.3500  175.2440 C.3   259  THR259      0.0375
    109  N         16.2680 -174.8090  165.4130 N.3   264  SER264     -0.1217
    110  CA        16.8190 -176.0830  165.8680 C.3   264  SER264      0.1889
    111  C         16.8360 -177.1410  164.7750 C.2   264  SER264      0.2288
    112  O         17.8210 -177.8660  164.6320 O.2   264  SER264     -0.2866
    113  CB        16.0430 -176.6170  167.0820 C.3   264  SER264      0.2089
    114  OG        14.7400 -177.0320  166.7180 O.3   264  SER264     -0.2183
    115  N         19.6630 -176.3180  162.4640 N.3   267  GLN267     -0.1231
    116  CA        20.9200 -176.6140  163.1360 C.3   267  GLN267      0.1698
    117  C         21.1820 -178.1120  163.1430 C.2   267  GLN267      0.2592
    118  O         22.3230 -178.5440  162.9760 O.2   267  GLN267     -0.2718
    119  CB        20.8940 -176.0930  164.5810 C.3   267  GLN267      0.0381
    120  CG        22.0580 -176.5820  165.4400 C.3   267  GLN267      0.0905
    121  CD        23.3770 -175.9130  165.1110 C.2   267  GLN267      0.2608
    122  OE1       23.7150 -174.8820  165.6850 O.2   267  GLN267     -0.2717
    123  NE2       24.1260 -176.4940  164.1780 N.am  267  GLN267     -0.0878
    124  N         20.1250 -178.9000  163.3210 N.am  268  MET268     -0.1979
    125  CA        20.2670 -180.3450  163.3600 C.3   268  MET268      0.1605
    126  C         20.1020 -181.0790  162.0280 C.2   268  MET268      0.2287
    127  O         19.9760 -182.3060  161.9970 O.2   268  MET268     -0.2864
    128  CB        19.3520 -180.9220  164.4410 C.3   268  MET268      0.0413
    129  CG        19.9020 -180.6360  165.8430 C.3   268  MET268      0.0598
    130  SD        18.8190 -181.0480  167.2170 S.3   268  MET268     -0.1393
    131  CE        19.1010 -182.8170  167.3730 C.3   268  MET268      0.0692
    132  N         18.7880 -171.6070  172.2310 N.3   301  SER301     -0.1202
    133  CA        20.1590 -171.9750  171.8720 C.3   301  SER301      0.2020
    134  C         20.5650 -171.8740  170.4020 C.2   301  SER301      0.2619
    135  O         21.7560 -171.8290  170.0980 O.2   301  SER301     -0.2717
    136  CB        20.4640 -173.3910  172.3660 C.3   301  SER301      0.2103
    137  OG        20.3240 -173.4700  173.7700 O.3   301  SER301     -0.2182
    138  N         19.6050 -171.8330  169.4870 N.am  302  CYS302     -0.1969
    139  CA        19.9590 -171.7590  168.0710 C.3   302  CYS302      0.1712
    140  C         19.7440 -170.3770  167.4610 C.2   302  CYS302      0.2296
    141  O         19.6300 -170.2320  166.2420 O.2   302  CYS302     -0.2864
    142  CB        19.1710 -172.8170  167.2930 C.3   302  CYS302      0.0983
    143  SG        19.4610 -174.5050  167.8920 S.3   302  CYS302     -0.0798
    144  N         20.8240 -166.3300  175.0940 N.3   336  GLN336     -0.1245
    145  CA        21.9110 -166.8580  174.2690 C.3   336  GLN336      0.1566
    146  C         22.5410 -165.8210  173.3470 C.2   336  GLN336      0.2260
    147  O         21.8410 -165.0070  172.7440 O.2   336  GLN336     -0.2867
    148  CB        21.3760 -168.0240  173.4330 C.3   336  GLN336      0.0367
    149  CG        20.8640 -169.2000  174.2580 C.3   336  GLN336      0.0905
    150  CD        21.9890 -170.0810  174.7870 C.2   336  GLN336      0.2608
    151  OE1       22.1890 -171.1980  174.3100 O.2   336  GLN336     -0.2717
    152  NE2       22.7370 -169.5740  175.7650 N.am  336  GLN336     -0.0878
    153  N         29.7720 -168.5300  181.2910 N.3   372  ASN372     -0.1225
    154  CA        28.4660 -169.0560  180.9110 C.3   372  ASN372      0.1785
    155  C         28.5640 -170.3770  180.1460 C.2   372  ASN372      0.2597
    156  O         28.9810 -170.4100  178.9900 O.2   372  ASN372     -0.2718
    157  CB        27.7040 -168.0210  180.0840 C.3   372  ASN372      0.1169
    158  CG        26.2850 -168.4470  179.7950 C.2   372  ASN372      0.2627
    159  OD1       26.0420 -169.2790  178.9210 O.2   372  ASN372     -0.2716
    160  ND2       25.3340 -167.8950  180.5480 N.am  372  ASN372     -0.0877
    161  N         28.1560 -171.4650  180.7940 N.am  373  MET373     -0.1965
    162  CA        28.2280 -172.7830  180.1780 C.3   373  MET373      0.1736
    163  C         27.1530 -173.1050  179.1380 C.2   373  MET373      0.2616
    164  O         27.0420 -174.2420  178.6720 O.2   373  MET373     -0.2715
    165  CB        28.2820 -173.8660  181.2600 C.3   373  MET373      0.0427
    166  CG        29.6480 -173.9550  181.9350 C.3   373  MET373      0.0599
    167  SD        31.0180 -174.0010  180.7300 S.3   373  MET373     -0.1393
    168  CE        30.6440 -175.5310  179.8680 C.3   373  MET373      0.0692
    169  N         26.3610 -172.1010  178.7760 N.am  374  PHE374     -0.1960
    170  CA        25.3480 -172.2620  177.7390 C.3   374  PHE374      0.1771
    171  C         25.9270 -171.4910  176.5480 C.2   374  PHE374      0.2619
    172  O         25.2120 -171.0580  175.6450 O.2   374  PHE374     -0.2715
    173  CB        24.0060 -171.6700  178.1820 C.3   374  PHE374      0.0574
    174  CG        23.2960 -172.4920  179.2240 C.ar  374  PHE374     -0.0200
    175  CD1       22.6230 -173.6550  178.8720 C.ar  374  PHE374     -0.0042
    176  CD2       23.3150 -172.1110  180.5640 C.ar  374  PHE374     -0.0042
    177  CE1       21.9750 -174.4290  179.8360 C.ar  374  PHE374     -0.0003
    178  CE2       22.6700 -172.8790  181.5350 C.ar  374  PHE374     -0.0003
    179  CZ        21.9980 -174.0410  181.1680 C.ar  374  PHE374     -0.0000
    180  N         27.2480 -171.3200  176.5890 N.am  375  ALA375     -0.1977
    181  CA        28.0120 -170.6450  175.5450 C.3   375  ALA375      0.1597
    182  C         27.7630 -169.1400  175.4210 C.2   375  ALA375      0.2287
    183  O         27.9710 -168.5570  174.3560 O.2   375  ALA375     -0.2864
    184  CB        27.7670 -171.3380  174.2020 C.3   375  ALA375      0.0319
@<TRIPOS>BOND
     1   127   126    2
     2   126   125    1
     3   115   116    1
     4   118   117    2
     5   116   117    1
     6   116   119    1
     7   117   124   am
     8   124   125    1
     9   125   128    1
    10    89    87   ar
    11   123   121   am
    12   128   129    1
    13   119   120    1
    14   112   111    2
    15    87    88   ar
    16    87    86    1
    17   111   110    1
    18   121   120    1
    19   121   122    2
    20   109   110    1
    21    86    83    1
    22   129   130    1
    23   110   113    1
    24   141   140    2
    25    82    83    1
    26   114   113    1
    27    83    84    1
    28    72    73    2
    29    72    71    1
    30   130   131    1
    31   142   143    1
    32   142   139    1
    33   140   139    1
    34    74    71    1
    35    74    75    1
    36    71    70    1
    37   139   138    1
    38    84    90   am
    39    84    85    2
    40    77    75   ar
    41    77    79   ar
    42    75    76   ar
    43    90    91    1
    44    79    80   ar
    45   138   134   am
    46    76    78   ar
    47    91    92    1
    48   135   134    2
    49   134   133    1
    50    80    78   ar
    51    80    81    1
    52    94    92   am
    53    94    95    1
    54    92    93    2
    55    95    96    1
    56    95    98    1
    57   133   132    1
    58   133   136    1
    59   100    99   ar
    60    96    97    2
    61    98    99    1
    62   136   137    1
    63    99   101   ar
    64   147   146    2
    65   146   145    1
    66   148   149    1
    67   148   145    1
    68   105   104    2
    69    66    67    2
    70    66    65    1
    71   104   103    1
    72    68    69    1
    73    68    65    1
    74   184   181    1
    75   149   150    1
    76   145   144    1
    77   151   150    2
    78   183   182    2
    79    65    64    1
    80   150   152   am
    81   108   106    1
    82   182   181    1
    83   103   106    1
    84   103   102    1
    85   181   180    1
    86   172   171    2
    87   106   107    1
    88   171   180   am
    89   171   170    1
    90    56    54   ar
    91   170   173    1
    92   170   169    1
    93    53    54    1
    94    53    52    1
    95   173   174    1
    96    60    59    2
    97    54    55   ar
    98    44    43    1
    99    44    45    1
   100    59    58    1
   101    47    45   ar
   102   164   163    2
   103   169   163   am
   104   175   174   ar
   105   175   177   ar
   106   159   158    2
   107    52    49    1
   108   156   155    2
   109    61    58    1
   110    61    63    1
   111    61    62    1
   112    58    57    1
   113   163   162    1
   114    43    40    1
   115    45    46   ar
   116   174   176   ar
   117    40    41    1
   118    40    39    1
   119    48    49    1
   120    48    41   am
   121   158   157    1
   122   158   160   am
   123   177   179   ar
   124   168   167    1
   125    34    33    2
   126    49    50    1
   127   157   154    1
   128    41    42    2
   129   155   161   am
   130   155   154    1
   131   162   161    1
   132   162   165    1
   133    39    33   am
   134    18    17    2
   135    33    32    1
   136   176   178   ar
   137   167   166    1
   138   154   153    1
   139    11    10    2
   140   179   178   ar
   141    50    51    2
   142   165   166    1
   143     6     5    1
   144    32    31    1
   145    32    35    1
   146    17    16    1
   147    16    19    1
   148    16    15    1
   149    29    30    1
   150    29    26    1
   151     7     5    1
   152    28    27    2
   153    31    27   am
   154    27    26    1
   155    24    21    1
   156     5     2    1
   157    10    15   am
   158    10     9    1
   159    26    25    1
   160    35    36    1
   161    20    21    1
   162    21    22    1
   163     8     9    1
   164     8     3   am
   165    14    12    1
   166     9    12    1
   167     2     3    1
   168     2     1    1
   169    38    36    1
   170     3     4    2
   171    36    37    1
   172    12    13    1
   173    22    23    2
