@<TRIPOS>MOLECULE
tmp/3aujE00.pdb
 198 189 0 0 0
SMALL
GASTEIGER

@<TRIPOS>ATOM
      1  N         35.4760 -177.3090  161.0110 N.3    35  ILE35      -0.1245
      2  CA        34.9120 -175.9570  160.9380 C.3    35  ILE35       0.1561
      3  C         35.9110 -174.7900  160.8890 C.2    35  ILE35       0.2260
      4  O         35.5770 -173.7110  160.3910 O.2    35  ILE35      -0.2867
      5  CB        33.9000 -175.7230  162.0930 C.3    35  ILE35       0.0252
      6  CG1       33.0320 -174.4970  161.7880 C.3    35  ILE35       0.0019
      7  CG2       34.6410 -175.5580  163.4170 C.3    35  ILE35       0.0019
      8  CD1       31.7840 -174.4160  162.6340 C.3    35  ILE35       0.0001
      9  N         24.5040 -187.3570  163.9250 N.3    68  ASP68      -0.1225
     10  CA        24.5480 -186.7640  165.2630 C.3    68  ASP68       0.1805
     11  C         25.7780 -187.3250  165.9810 C.2    68  ASP68       0.2598
     12  O         25.9350 -188.5420  166.0830 O.2    68  ASP68      -0.2718
     13  CB        23.2640 -187.1110  166.0250 C.3    68  ASP68       0.1424
     14  CG        23.2450 -186.5460  167.4320 C.2    68  ASP68       0.3668
     15  OD1       23.9580 -187.0860  168.3050 O.co2  68  ASP68      -0.2456
     16  OD2       22.5200 -185.5550  167.6690 O.co2  68  ASP68      -0.2456
     17  N         26.6510 -186.4520  166.4850 N.am   69  VAL69      -0.1966
     18  CA        27.8740 -186.9290  167.1280 C.3    69  VAL69       0.1727
     19  C         27.6630 -187.9140  168.2810 C.2    69  VAL69       0.2616
     20  O         28.4790 -188.8140  168.4780 O.2    69  VAL69      -0.2715
     21  CB        28.7690 -185.7560  167.5960 C.3    69  VAL69       0.0290
     22  CG1       28.2950 -185.2180  168.9260 C.3    69  VAL69       0.0023
     23  CG2       30.2140 -186.2160  167.6920 C.3    69  VAL69       0.0023
     24  N         26.5770 -187.7660  169.0370 N.am   70  ALA70      -0.1963
     25  CA        26.3150 -188.6880  170.1410 C.3    70  ALA70       0.1728
     26  C         26.0420 -190.0860  169.6020 C.2    70  ALA70       0.2616
     27  O         26.6120 -191.0710  170.0750 O.2    70  ALA70      -0.2715
     28  CB        25.1220 -188.2130  170.9760 C.3    70  ALA70       0.0334
     29  N         25.1710 -190.1830  168.6070 N.am   71  PHE71      -0.1974
     30  CA        24.8680 -191.4910  168.0600 C.3    71  PHE71       0.1639
     31  C         26.0130 -192.0880  167.2460 C.2    71  PHE71       0.2290
     32  O         26.1280 -193.3070  167.1280 O.2    71  PHE71      -0.2864
     33  CB        23.5660 -191.4320  167.2710 C.3    71  PHE71       0.0560
     34  CG        22.3690 -191.2040  168.1450 C.ar   71  PHE71      -0.0200
     35  CD1       21.8590 -189.9210  168.3370 C.ar   71  PHE71      -0.0042
     36  CD2       21.7920 -192.2700  168.8370 C.ar   71  PHE71      -0.0042
     37  CE1       20.7930 -189.6990  169.2050 C.ar   71  PHE71      -0.0003
     38  CE2       20.7260 -192.0620  169.7100 C.ar   71  PHE71      -0.0003
     39  CZ        20.2230 -190.7690  169.8960 C.ar   71  PHE71      -0.0000
     40  N         32.4830 -185.4550  164.3370 N.3    89  GLN89      -0.1245
     41  CA        31.7430 -185.0300  163.1550 C.3    89  GLN89       0.1566
     42  C         32.7490 -184.3470  162.2420 C.2    89  GLN89       0.2260
     43  O         33.7970 -183.9010  162.7030 O.2    89  GLN89      -0.2867
     44  CB        30.6480 -184.0190  163.5230 C.3    89  GLN89       0.0367
     45  CG        29.4880 -184.5770  164.3240 C.3    89  GLN89       0.0905
     46  CD        28.4210 -183.5250  164.5950 C.2    89  GLN89       0.2608
     47  OE1       28.7080 -182.4490  165.1250 O.2    89  GLN89      -0.2717
     48  NE2       27.1880 -183.8330  164.2350 N.am   89  GLN89      -0.0878
     49  N         32.6510 -181.4580  161.0030 N.3    91  LYS91      -0.1245
     50  CA        32.8900 -180.0870  161.4260 C.3    91  LYS91       0.1561
     51  C         33.7890 -179.9990  162.6540 C.2    91  LYS91       0.2260
     52  O         34.2120 -178.9110  163.0380 O.2    91  LYS91      -0.2867
     53  CB        31.5750 -179.3260  161.6450 C.3    91  LYS91       0.0271
     54  CG        30.5890 -179.9220  162.6300 C.3    91  LYS91       0.0035
     55  CD        29.3290 -179.0530  162.6550 C.3    91  LYS91       0.0206
     56  CE        28.2390 -179.6390  163.5340 C.3    91  LYS91       0.1093
     57  NZ        28.6330 -179.6580  164.9640 N.3    91  LYS91      -0.1314
     58  N         33.1700 -181.3430  165.9980 N.3    93  THR93      -0.1218
     59  CA        32.5710 -181.6230  167.3030 C.3    93  THR93       0.1862
     60  C         32.9700 -183.0170  167.7660 C.2    93  THR93       0.2287
     61  O         32.8580 -183.9800  167.0130 O.2    93  THR93      -0.2866
     62  CB        31.0360 -181.5060  167.2360 C.3    93  THR93       0.1770
     63  OG1       30.6930 -180.2540  166.6270 O.3    93  THR93      -0.2211
     64  CG2       30.4280 -181.5520  168.6350 C.3    93  THR93       0.0375
     65  N         33.1790 -186.0340  171.1860 N.3    95  VAL95      -0.1245
     66  CA        32.6650 -186.5170  172.4620 C.3    95  VAL95       0.1561
     67  C         33.3260 -187.8460  172.8510 C.2    95  VAL95       0.2260
     68  O         33.6060 -188.6830  171.9880 O.2    95  VAL95      -0.2867
     69  CB        31.1210 -186.7170  172.3950 C.3    95  VAL95       0.0252
     70  CG1       30.7680 -187.7390  171.3300 C.3    95  VAL95       0.0019
     71  CG2       30.5820 -187.1730  173.7470 C.3    95  VAL95       0.0019
     72  N         22.6090 -189.4570  174.9240 N.3   104  LEU104     -0.1231
     73  CA        22.9270 -188.0380  175.0200 C.3   104  LEU104      0.1693
     74  C         23.7360 -187.6520  176.2570 C.2   104  LEU104      0.2593
     75  O         23.9310 -186.4710  176.5430 O.2   104  LEU104     -0.2718
     76  CB        21.6450 -187.2040  174.9070 C.3   104  LEU104      0.0284
     77  CG        20.9230 -187.4300  173.5650 C.3   104  LEU104      0.0019
     78  CD1       19.6920 -186.5320  173.4510 C.3   104  LEU104      0.0001
     79  CD2       21.8840 -187.1340  172.4200 C.3   104  LEU104      0.0001
     80  N         24.2130 -188.6560  176.9850 N.am  105  SER105     -0.1938
     81  CA        25.0630 -188.4120  178.1420 C.3   105  SER105      0.2055
     82  C         26.4780 -188.6790  177.6140 C.2   105  SER105      0.2643
     83  O         26.6490 -188.8860  176.4110 O.2   105  SER105     -0.2714
     84  CB        24.7300 -189.3740  179.2810 C.3   105  SER105      0.2130
     85  OG        25.4900 -189.0480  180.4320 O.3   105  SER105     -0.2179
     86  N         27.4800 -188.6950  178.4890 N.am  106  ASN106     -0.1971
     87  CA        28.8550 -188.9240  178.0470 C.3   106  ASN106      0.1688
     88  C         29.8440 -188.7820  179.1960 C.2   106  ASN106      0.2292
     89  O         29.4550 -188.4590  180.3150 O.2   106  ASN106     -0.2864
     90  CB        29.2230 -187.9070  176.9570 C.3   106  ASN106      0.1181
     91  CG        29.1680 -186.4670  177.4600 C.2   106  ASN106      0.2629
     92  OD1       30.0590 -186.0120  178.1820 O.2   106  ASN106     -0.2716
     93  ND2       28.1120 -185.7470  177.0890 N.am  106  ASN106     -0.0877
     94  N         32.7350 -183.9340  176.8910 N.3   109  LEU109     -0.1245
     95  CA        32.1550 -183.3400  175.6930 C.3   109  LEU109      0.1561
     96  C         32.8730 -182.0590  175.2610 C.2   109  LEU109      0.2260
     97  O         33.3220 -181.2650  176.0900 O.2   109  LEU109     -0.2867
     98  CB        30.6660 -183.0450  175.9320 C.3   109  LEU109      0.0270
     99  CG        29.9120 -182.3060  174.8180 C.3   109  LEU109      0.0019
    100  CD1       29.9340 -183.1310  173.5310 C.3   109  LEU109      0.0001
    101  CD2       28.4740 -182.0470  175.2620 C.3   109  LEU109      0.0001
    102  N         31.6760 -179.2950  172.9560 N.3   111  PRO111     -0.2102
    103  CA        30.5720 -178.6020  172.2870 C.3   111  PRO111      0.1504
    104  C         30.8790 -177.3780  171.4320 C.2   111  PRO111      0.2576
    105  O         29.9640 -176.7970  170.8520 O.2   111  PRO111     -0.2718
    106  CB        29.6410 -178.2610  173.4440 C.3   111  PRO111      0.0282
    107  CG        30.5860 -177.9650  174.5430 C.3   111  PRO111      0.0208
    108  CD        31.6460 -179.0360  174.4110 C.3   111  PRO111      0.0893
    109  N         32.1410 -176.9730  171.3640 N.am  112  GLN112     -0.1966
    110  CA        32.5100 -175.8180  170.5560 C.3   112  GLN112      0.1733
    111  C         33.7050 -176.1440  169.6690 C.2   112  GLN112      0.2616
    112  O         34.8390 -175.7710  169.9640 O.2   112  GLN112     -0.2715
    113  CB        32.8060 -174.6090  171.4570 C.3   112  GLN112      0.0408
    114  CG        31.5430 -174.0090  172.0690 C.3   112  GLN112      0.0908
    115  CD        31.8120 -172.9780  173.1550 C.2   112  GLN112      0.2608
    116  OE1       32.6160 -172.0640  172.9760 O.2   112  GLN112     -0.2717
    117  NE2       31.1200 -173.1150  174.2860 N.am  112  GLN112     -0.0878
    118  N         33.4250 -176.8370  168.5680 N.am  113  ALA113     -0.1964
    119  CA        34.4520 -177.2540  167.6130 C.3   113  ALA113      0.1713
    120  C         35.4490 -176.1720  167.1960 C.2   113  ALA113      0.2458
    121  O         36.6330 -176.4450  167.0570 O.2   113  ALA113     -0.2730
    122  CB        33.7890 -177.8570  166.3660 C.3   113  ALA113      0.0333
    123  N         34.9910 -174.9320  166.9940 N.am  114  PRO114     -0.2727
    124  CA        35.9340 -173.8830  166.5890 C.3   114  PRO114      0.1402
    125  C         37.1220 -173.6520  167.5260 C.2   114  PRO114      0.2269
    126  O         38.1550 -173.1220  167.1070 O.2   114  PRO114     -0.2865
    127  CB        35.0550 -172.6290  166.4830 C.3   114  PRO114      0.0296
    128  CG        33.6820 -173.1710  166.2300 C.3   114  PRO114      0.0237
    129  CD        33.6180 -174.4050  167.0960 C.3   114  PRO114      0.0939
    130  N         36.8480 -175.5150  177.3800 N.3   143  LEU143     -0.1231
    131  CA        37.0180 -174.3570  176.5050 C.3   143  LEU143      0.1693
    132  C         35.6230 -173.7870  176.2370 C.2   143  LEU143      0.2592
    133  O         34.7080 -174.5230  175.8560 O.2   143  LEU143     -0.2718
    134  CB        37.6770 -174.7770  175.1870 C.3   143  LEU143      0.0284
    135  CG        39.1090 -175.3230  175.2830 C.3   143  LEU143      0.0019
    136  CD1       39.4600 -176.0510  173.9880 C.3   143  LEU143      0.0001
    137  CD2       40.0910 -174.1830  175.5600 C.3   143  LEU143      0.0001
    138  N         35.4610 -172.4830  176.4450 N.am  144  ASN144     -0.1974
    139  CA        34.1750 -171.8240  176.2420 C.3   144  ASN144      0.1688
    140  C         34.3820 -170.4060  175.7430 C.2   144  ASN144      0.2292
    141  O         35.1320 -169.6340  176.3420 O.2   144  ASN144     -0.2864
    142  CB        33.3920 -171.7970  177.5570 C.3   144  ASN144      0.1181
    143  CG        32.0480 -171.1020  177.4280 C.2   144  ASN144      0.2629
    144  OD1       31.2070 -171.4900  176.6080 O.2   144  ASN144     -0.2716
    145  ND2       31.8350 -170.0700  178.2440 N.am  144  ASN144     -0.0877
    146  N         31.5810 -167.8180  170.0950 N.3   148  ALA148     -0.1231
    147  CA        31.7200 -168.9780  169.2160 C.3   148  ALA148      0.1694
    148  C         30.4570 -169.2130  168.3930 C.2   148  ALA148      0.2591
    149  O         30.5330 -169.4580  167.1840 O.2   148  ALA148     -0.2718
    150  CB        32.0490 -170.2190  170.0300 C.3   148  ALA148      0.0304
    151  N         29.3010 -169.1510  169.0480 N.am  149  ARG149     -0.1980
    152  CA        28.0310 -169.3400  168.3530 C.3   149  ARG149      0.1597
    153  C         27.7870 -168.1640  167.4100 C.2   149  ARG149      0.2287
    154  O         27.5030 -168.3550  166.2310 O.2   149  ARG149     -0.2864
    155  CB        26.8720 -169.4670  169.3570 C.3   149  ARG149      0.0334
    156  CG        25.4840 -169.1980  168.7730 C.3   149  ARG149      0.0492
    157  CD        24.3840 -169.5600  169.7700 C.3   149  ARG149      0.2205
    158  NE        24.6810 -169.0360  171.1010 N.pl3 149  ARG149     -0.0865
    159  CZ        24.4680 -169.7010  172.2350 C.cat 149  ARG149      0.5346
    160  NH1       23.9430 -170.9230  172.2120 N.pl3 149  ARG149      0.1354
    161  NH2       24.8070 -169.1560  173.3960 N.pl3 149  ARG149      0.1354
    162  N         30.1920 -168.7380  164.4990 N.3   152  TYR152     -0.1227
    163  CA        30.1550 -170.0120  163.7880 C.3   152  TYR152      0.1736
    164  C         28.8860 -170.8600  163.7330 C.2   152  TYR152      0.2595
    165  O         28.8530 -171.8380  162.9800 O.2   152  TYR152     -0.2718
    166  CB        31.2800 -170.8960  164.3240 C.3   152  TYR152      0.0548
    167  CG        32.6650 -170.4050  163.9810 C.ar  152  TYR152     -0.0200
    168  CD1       33.1670 -170.5280  162.6870 C.ar  152  TYR152     -0.0009
    169  CD2       33.4770 -169.8200  164.9510 C.ar  152  TYR152     -0.0009
    170  CE1       34.4480 -170.0810  162.3650 C.ar  152  TYR152      0.0417
    171  CE2       34.7590 -169.3700  164.6420 C.ar  152  TYR152      0.0417
    172  CZ        35.2360 -169.5060  163.3480 C.ar  152  TYR152      0.1957
    173  OH        36.5050 -169.0800  163.0410 O.3   152  TYR152     -0.2866
    174  N         27.8510 -170.5200  164.5000 N.am  153  GLN153     -0.1979
    175  CA        26.6440 -171.3540  164.4930 C.3   153  GLN153      0.1601
    176  C         26.0340 -171.6170  163.1180 C.2   153  GLN153      0.2287
    177  O         25.7240 -172.7620  162.7920 O.2   153  GLN153     -0.2864
    178  CB        25.5660 -170.7930  165.4320 C.3   153  GLN153      0.0394
    179  CG        24.3240 -171.6830  165.4980 C.3   153  GLN153      0.0908
    180  CD        23.4760 -171.4540  166.7440 C.2   153  GLN153      0.2608
    181  OE1       22.9080 -170.3770  166.9400 O.2   153  GLN153     -0.2717
    182  NE2       23.3900 -172.4780  167.5940 N.am  153  GLN153     -0.0878
    183  N         28.1950 -173.9310  161.1980 N.3   156  SER156     -0.1217
    184  CA        28.0810 -175.2530  161.7930 C.3   156  SER156      0.1889
    185  C         26.8230 -175.9490  161.2750 C.2   156  SER156      0.2288
    186  O         26.8590 -177.1250  160.9120 O.2   156  SER156     -0.2866
    187  CB        28.0110 -175.1360  163.3140 C.3   156  SER156      0.2089
    188  OG        27.6010 -176.3570  163.9060 O.3   156  SER156     -0.2183
    189  N         26.8020 -179.2500  158.9500 N.3   160  HIS160     -0.1241
    190  CA        26.0900 -180.4360  159.4130 C.3   160  HIS160      0.1621
    191  C         25.0530 -180.8840  158.3910 C.2   160  HIS160      0.2264
    192  O         24.9100 -182.0770  158.1300 O.2   160  HIS160     -0.2867
    193  CB        25.4030 -180.1860  160.7570 C.3   160  HIS160      0.0745
    194  CG        24.8180 -181.4250  161.3590 C.ar  160  HIS160      0.0817
    195  ND1       23.4720 -181.5680  161.6190 N.ar  160  HIS160     -0.2268
    196  CD2       25.3950 -182.5980  161.7120 C.ar  160  HIS160      0.1154
    197  CE1       23.2440 -182.7750  162.1040 C.ar  160  HIS160      0.1986
    198  NE2       24.3950 -183.4210  162.1700 N.ar  160  HIS160     -0.2212
@<TRIPOS>BOND
     1   192   191    2
     2   191   190    1
     3   189   190    1
     4   190   193    1
     5     4     3    2
     6   193   194    1
     7     3     2    1
     8   186   185    2
     9     2     1    1
    10     2     5    1
    11    49    50    1
    12   183   184    1
    13   185   184    1
    14   194   195   ar
    15   194   196   ar
    16    50    53    1
    17    50    51    1
    18   195   197   ar
    19    53    54    1
    20   196   198   ar
    21     6     5    1
    22     6     8    1
    23   184   187    1
    24     5     7    1
    25   197   198   ar
    26    42    43    2
    27    42    41    1
    28   170   168   ar
    29   170   172   ar
    30    54    55    1
    31    51    52    2
    32    55    56    1
    33   168   167   ar
    34   177   176    2
    35   165   164    2
    36   173   172    1
    37   176   175    1
    38    41    44    1
    39    41    40    1
    40   187   188    1
    41   172   171   ar
    42    44    45    1
    43    56    57    1
    44   164   163    1
    45   164   174   am
    46   163   166    1
    47   163   162    1
    48     9    10    1
    49   167   166    1
    50   167   169   ar
    51    48    46   am
    52    45    46    1
    53   175   174    1
    54   175   178    1
    55    46    47    2
    56   171   169   ar
    57    10    11    1
    58    10    13    1
    59   178   179    1
    60   179   180    1
    61    11    12    2
    62    11    17   am
    63    58    59    1
    64    13    14    1
    65   128   127    1
    66   128   129    1
    67   154   153    2
    68   122   119    1
    69   127   124    1
    70    17    18    1
    71   124   123    1
    72   124   125    1
    73    63    62    1
    74   180   181    2
    75   180   182   am
    76   123   129    1
    77   123   120   am
    78    61    60    2
    79   121   120    2
    80   126   125    2
    81    32    31    2
    82    18    21    1
    83    18    19    1
    84   149   148    2
    85   120   119    1
    86    62    59    1
    87    62    64    1
    88    31    30    1
    89    33    30    1
    90    33    34    1
    91    59    60    1
    92   153   152    1
    93    14    16   ar
    94    14    15   ar
    95    21    23    1
    96    21    22    1
    97   119   118    1
    98    30    29    1
    99    34    35   ar
   100    34    36   ar
   101    19    20    2
   102    19    24   am
   103    35    37   ar
   104   152   151    1
   105   152   155    1
   106   148   151   am
   107   148   147    1
   108   118   111   am
   109    29    26   am
   110   156   155    1
   111   156   157    1
   112    36    38   ar
   113    24    25    1
   114    37    39   ar
   115   147   150    1
   116   147   146    1
   117    26    27    2
   118    26    25    1
   119   111   112    2
   120   111   110    1
   121    38    39   ar
   122   157   158    1
   123    25    28    1
   124   110   109    1
   125   110   113    1
   126   105   104    2
   127   158   159    2
   128    65    66    1
   129    70    69    1
   130   109   104   am
   131   104   103    1
   132   113   114    1
   133    68    67    2
   134   114   115    1
   135   160   159    1
   136   159   161    1
   137   103   102    1
   138   103   106    1
   139    69    66    1
   140    69    71    1
   141    79    77    1
   142    66    67    1
   143   102   108    1
   144   116   115    2
   145   115   117   am
   146   106   107    1
   147    78    77    1
   148   100    99    1
   149    77    76    1
   150   136   135    1
   151   108   107    1
   152    99   101    1
   153    99    98    1
   154    76    73    1
   155    72    73    1
   156    73    74    1
   157   134   135    1
   158   134   131    1
   159    96    95    1
   160    96    97    2
   161   135   137    1
   162    95    98    1
   163    95    94    1
   164   140   139    1
   165   140   141    2
   166   133   132    2
   167   132   138   am
   168   132   131    1
   169   139   138    1
   170   139   142    1
   171    74    75    2
   172    74    80   am
   173    83    82    2
   174   131   130    1
   175   144   143    2
   176    90    91    1
   177    90    87    1
   178    80    81    1
   179    93    91   am
   180   143   142    1
   181   143   145   am
   182    91    92    2
   183    82    81    1
   184    82    86   am
   185    87    86    1
   186    87    88    1
   187    81    84    1
   188    88    89    2
   189    84    85    1
