@<TRIPOS>MOLECULE
tmp/3aujB00.pdb
 203 194 0 0 0
SMALL
GASTEIGER

@<TRIPOS>ATOM
      1  N         32.4580 -125.2090  185.8580 N.3    34  ILE34      -0.1245
      2  CA        31.9350 -126.5690  185.8490 C.3    34  ILE34       0.1561
      3  C         32.9520 -127.6890  186.1320 C.2    34  ILE34       0.2260
      4  O         32.5950 -128.7070  186.7320 O.2    34  ILE34      -0.2867
      5  CB        31.1760 -126.8520  184.5230 C.3    34  ILE34       0.0252
      6  CG1       30.2880 -128.0870  184.6870 C.3    34  ILE34       0.0019
      7  CG2       32.1610 -127.0430  183.3790 C.3    34  ILE34       0.0019
      8  CD1       29.2900 -128.2750  183.5540 C.3    34  ILE34       0.0001
      9  N         21.7840 -115.5010  181.2320 N.3    67  ASP67      -0.1225
     10  CA        22.0970 -116.0470  179.9100 C.3    67  ASP67       0.1805
     11  C         23.4010 -115.4110  179.4150 C.2    67  ASP67       0.2598
     12  O         23.5010 -114.1900  179.3210 O.2    67  ASP67      -0.2718
     13  CB        20.9330 -115.7580  178.9430 C.3    67  ASP67       0.1424
     14  CG        21.1600 -116.3320  177.5490 C.2    67  ASP67       0.3668
     15  OD1       21.9830 -115.7670  176.7920 O.co2  67  ASP67      -0.2456
     16  OD2       20.5190 -117.3510  177.2080 O.co2  67  ASP67      -0.2456
     17  N         24.3980 -116.2360  179.1050 N.am   68  VAL68      -0.1966
     18  CA        25.7000 -115.7230  178.6740 C.3    68  VAL68       0.1727
     19  C         25.6660 -114.7630  177.4860 C.2    68  VAL68       0.2616
     20  O         26.5050 -113.8660  177.3900 O.2    68  VAL68      -0.2715
     21  CB        26.6970 -116.8760  178.3640 C.3    68  VAL68       0.0290
     22  CG1       26.3680 -117.5230  177.0390 C.3    68  VAL68       0.0023
     23  CG2       28.1260 -116.3420  178.3640 C.3    68  VAL68       0.0023
     24  N         24.7070 -114.9400  176.5860 N.am   69  ALA69      -0.1963
     25  CA        24.6050 -114.0610  175.4250 C.3    69  ALA69       0.1728
     26  C         24.1870 -112.6640  175.8650 C.2    69  ALA69       0.2616
     27  O         24.7950 -111.6680  175.4570 O.2    69  ALA69      -0.2715
     28  CB        23.5960 -114.6170  174.4170 C.3    69  ALA69       0.0334
     29  N         23.1530 -112.5870  176.6980 N.am   70  PHE70      -0.1974
     30  CA        22.6830 -111.2970  177.1680 C.3    70  PHE70       0.1639
     31  C         23.6450 -110.6400  178.1540 C.2    70  PHE70       0.2290
     32  O         23.7050 -109.4090  178.2440 O.2    70  PHE70      -0.2864
     33  CB        21.2750 -111.4280  177.7520 C.3    70  PHE70       0.0560
     34  CG        20.2190 -111.6460  176.7000 C.ar   70  PHE70      -0.0200
     35  CD1       19.8710 -112.9300  176.2950 C.ar   70  PHE70      -0.0042
     36  CD2       19.6270 -110.5580  176.0600 C.ar   70  PHE70      -0.0042
     37  CE1       18.9500 -113.1330  175.2630 C.ar   70  PHE70      -0.0003
     38  CE2       18.7070 -110.7460  175.0280 C.ar   70  PHE70      -0.0003
     39  CZ        18.3680 -112.0390  174.6280 C.ar   70  PHE70      -0.0000
     40  N         29.8030 -117.1780  182.1930 N.3    88  GLN88      -0.1245
     41  CA        28.8910 -117.6060  183.2500 C.3    88  GLN88       0.1566
     42  C         29.7160 -118.2910  184.3390 C.2    88  GLN88       0.2260
     43  O         30.8460 -118.7180  184.0900 O.2    88  GLN88      -0.2867
     44  CB        27.8650 -118.6080  182.7170 C.3    88  GLN88       0.0367
     45  CG        26.8730 -118.0540  181.7190 C.3    88  GLN88       0.0905
     46  CD        25.9090 -119.1220  181.2370 C.2    88  GLN88       0.2608
     47  OE1       26.3270 -120.2120  180.8440 O.2    88  GLN88      -0.2717
     48  NE2       24.6150 -118.8170  181.2640 N.am   88  GLN88      -0.0878
     49  N         29.4840 -121.1790  185.4850 N.3    90  LYS90      -0.1245
     50  CA        29.8590 -122.5280  185.0980 C.3    90  LYS90       0.1561
     51  C         30.9580 -122.5450  184.0310 C.2    90  LYS90       0.2260
     52  O         31.4730 -123.6110  183.6860 O.2    90  LYS90      -0.2867
     53  CB        28.6280 -123.3400  184.6600 C.3    90  LYS90       0.0271
     54  CG        27.7410 -122.7140  183.5990 C.3    90  LYS90       0.0035
     55  CD        26.4900 -123.5770  183.3990 C.3    90  LYS90       0.0206
     56  CE        25.5570 -123.0010  182.3490 C.3    90  LYS90       0.1093
     57  NZ        26.1960 -123.0070  181.0090 N.3    90  LYS90      -0.1314
     58  N         30.8700 -121.1700  180.6540 N.3    92  THR92      -0.1218
     59  CA        30.5180 -120.9370  179.2590 C.3    92  THR92       0.1862
     60  C         30.9730 -119.5380  178.8690 C.2    92  THR92       0.2287
     61  O         30.7220 -118.5800  179.5980 O.2    92  THR92      -0.2866
     62  CB        29.0050 -121.0720  179.0480 C.3    92  THR92       0.1770
     63  OG1       28.5600 -122.3090  179.6220 O.3    92  THR92      -0.2211
     64  CG2       28.6750 -121.0680  177.5540 C.3    92  THR92       0.0375
     65  N         31.7050 -116.4710  175.5740 N.3    94  VAL94      -0.1245
     66  CA        31.3920 -115.9920  174.2330 C.3    94  VAL94       0.1561
     67  C         32.0230 -114.6250  173.9610 C.2    94  VAL94       0.2260
     68  O         32.0590 -113.7640  174.8430 O.2    94  VAL94      -0.2867
     69  CB        29.8550 -115.8850  174.0340 C.3    94  VAL94       0.0252
     70  CG1       29.2740 -114.8330  174.9770 C.3    94  VAL94       0.0019
     71  CG2       29.5280 -115.5470  172.5810 C.3    94  VAL94       0.0019
     72  N         21.8110 -113.3690  170.1150 N.3   103  LEU103     -0.1231
     73  CA        22.1990 -114.7730  170.0650 C.3   103  LEU103      0.1693
     74  C         23.1850 -115.1470  168.9560 C.2   103  LEU103      0.2593
     75  O         23.3740 -116.3210  168.6510 O.2   103  LEU103     -0.2718
     76  CB        20.9470 -115.6600  170.0150 C.3   103  LEU103      0.0284
     77  CG        20.0060 -115.4750  171.2210 C.3   103  LEU103      0.0019
     78  CD1       18.8170 -116.4360  171.1350 C.3   103  LEU103      0.0001
     79  CD2       20.7780 -115.7190  172.5160 C.3   103  LEU103      0.0001
     80  N         23.8020 -114.1420  168.3460 N.am  104  SER104     -0.1938
     81  CA        24.8270 -114.3810  167.3350 C.3   104  SER104      0.2055
     82  C         26.1130 -114.0140  168.0700 C.2   104  SER104      0.2643
     83  O         26.0660 -113.7280  169.2630 O.2   104  SER104     -0.2714
     84  CB        24.6510 -113.4740  166.1220 C.3   104  SER104      0.2130
     85  OG        25.7240 -113.6700  165.2130 O.3   104  SER104     -0.2179
     86  N         27.2500 -113.9980  167.3780 N.am  105  ASN105     -0.1971
     87  CA        28.5160 -113.6780  168.0380 C.3   105  ASN105      0.1688
     88  C         29.6830 -113.7730  167.0740 C.2   105  ASN105      0.2292
     89  O         29.5020 -114.1250  165.9090 O.2   105  ASN105     -0.2864
     90  CB        28.7630 -114.6640  169.1800 C.3   105  ASN105      0.1181
     91  CG        28.8850 -116.1010  168.6890 C.2   105  ASN105      0.2629
     92  OD1       29.8650 -116.4670  168.0340 O.2   105  ASN105     -0.2716
     93  ND2       27.8800 -116.9210  168.9930 N.am  105  ASN105     -0.0877
     94  N         32.2170 -118.5100  169.8380 N.3   108  LEU108     -0.1245
     95  CA        31.4660 -119.1140  170.9290 C.3   108  LEU108      0.1561
     96  C         32.1510 -120.3710  171.4430 C.2   108  LEU108      0.2260
     97  O         32.7840 -121.1060  170.6850 O.2   108  LEU108     -0.2867
     98  CB        30.0470 -119.4560  170.4590 C.3   108  LEU108      0.0270
     99  CG        29.1310 -120.1940  171.4420 C.3   108  LEU108      0.0019
    100  CD1       28.9140 -119.3450  172.6800 C.3   108  LEU108      0.0001
    101  CD2       27.7990 -120.5000  170.7700 C.3   108  LEU108      0.0001
    102  N         30.6340 -123.2140  173.5240 N.3   110  PRO110     -0.2102
    103  CA        29.4550 -123.9360  174.0160 C.3   110  PRO110      0.1504
    104  C         29.6620 -125.1530  174.9220 C.2   110  PRO110      0.2576
    105  O         28.6910 -125.7410  175.3860 O.2   110  PRO110     -0.2718
    106  CB        28.7380 -124.3120  172.7310 C.3   110  PRO110      0.0282
    107  CG        29.8660 -124.5990  171.8090 C.3   110  PRO110      0.0208
    108  CD        30.8490 -123.4920  172.0900 C.3   110  PRO110      0.0893
    109  N         30.9090 -125.5390  175.1650 N.am  111  GLN111     -0.1966
    110  CA        31.1830 -126.6860  176.0270 C.3   111  GLN111      0.1733
    111  C         32.2230 -126.3120  177.0770 C.2   111  GLN111      0.2616
    112  O         33.4080 -126.6040  176.9380 O.2   111  GLN111     -0.2715
    113  CB        31.6430 -127.8790  175.1780 C.3   111  GLN111      0.0408
    114  CG        30.5020 -128.4930  174.3680 C.3   111  GLN111      0.0908
    115  CD        30.9640 -129.5000  173.3310 C.2   111  GLN111      0.2608
    116  OE1       31.7890 -130.3730  173.6120 O.2   111  GLN111     -0.2717
    117  NE2       30.4160 -129.3930  172.1230 N.am  111  GLN111     -0.0878
    118  N         31.7480 -125.6510  178.1290 N.am  112  ALA112     -0.1964
    119  CA        32.5850 -125.1910  179.2290 C.3   112  ALA112      0.1713
    120  C         33.5320 -126.2500  179.7900 C.2   112  ALA112      0.2458
    121  O         34.6910 -125.9590  180.0770 O.2   112  ALA112     -0.2730
    122  CB        31.6990 -124.6440  180.3480 C.3   112  ALA112      0.0333
    123  N         33.0570 -127.4940  179.9500 N.am  113  PRO113     -0.2727
    124  CA        33.9290 -128.5400  180.4890 C.3   113  PRO113      0.1402
    125  C         35.2420 -128.7480  179.7380 C.2   113  PRO113      0.2269
    126  O         36.2010 -129.2680  180.3040 O.2   113  PRO113     -0.2865
    127  CB        33.0450 -129.7890  180.4450 C.3   113  PRO113      0.0296
    128  CG        31.6600 -129.2470  180.5270 C.3   113  PRO113      0.0237
    129  CD        31.7170 -128.0290  179.6530 C.3   113  PRO113      0.0939
    130  N         36.5920 -126.8240  170.0990 N.3   142  LEU142     -0.1231
    131  CA        36.6360 -127.9510  171.0250 C.3   142  LEU142      0.1693
    132  C         35.2400 -128.5770  171.0100 C.2   142  LEU142      0.2592
    133  O         34.2390 -127.8800  171.1940 O.2   142  LEU142     -0.2718
    134  CB        36.9780 -127.4690  172.4380 C.3   142  LEU142      0.0284
    135  CG        38.3980 -126.9290  172.6600 C.3   142  LEU142      0.0019
    136  CD1       38.4860 -126.2370  174.0110 C.3   142  LEU142      0.0001
    137  CD2       39.4010 -128.0720  172.5830 C.3   142  LEU142      0.0001
    138  N         35.1770 -129.8850  170.7850 N.am  143  ASN143     -0.1974
    139  CA        33.9010 -130.5900  170.7330 C.3   143  ASN143      0.1688
    140  C         34.0620 -132.0120  171.2580 C.2   143  ASN143      0.2292
    141  O         34.9000 -132.7690  170.7680 O.2   143  ASN143     -0.2864
    142  CB        33.3870 -130.6190  169.2900 C.3   143  ASN143      0.1181
    143  CG        32.0740 -131.3570  169.1530 C.2   143  ASN143      0.2629
    144  OD1       31.0960 -131.0470  169.8420 O.2   143  ASN143     -0.2716
    145  ND2       32.0400 -132.3410  168.2560 N.am  143  ASN143     -0.0877
    146  N         30.4930 -134.7220  176.3850 N.3   147  ALA147     -0.1231
    147  CA        30.4350 -133.5800  177.2920 C.3   147  ALA147      0.1694
    148  C         29.0470 -133.4090  177.8870 C.2   147  ALA147      0.2591
    149  O         28.9040 -133.1990  179.0900 O.2   147  ALA147     -0.2718
    150  CB        30.8530 -132.3020  176.5620 C.3   147  ALA147      0.0304
    151  N         28.0240 -133.4900  177.0400 N.am  148  ARG148     -0.1980
    152  CA        26.6450 -133.3490  177.4920 C.3   148  ARG148      0.1597
    153  C         26.2370 -134.5200  178.3840 C.2   148  ARG148      0.2287
    154  O         25.7120 -134.3170  179.4790 O.2   148  ARG148     -0.2864
    155  CB        25.6990 -133.2430  176.2880 C.3   148  ARG148      0.0334
    156  CG        24.2260 -133.4750  176.6110 C.3   148  ARG148      0.0492
    157  CD        23.3610 -133.0930  175.4200 C.3   148  ARG148      0.2205
    158  NE        23.8960 -133.6700  174.1940 N.pl3 148  ARG148     -0.0865
    159  CZ        23.8510 -133.0780  173.0070 C.cat 148  ARG148      0.5346
    160  NH1       23.2840 -131.8800  172.8760 N.pl3 148  ARG148      0.1354
    161  NH2       24.3980 -133.6720  171.9550 N.pl3 148  ARG148      0.1354
    162  N         28.0910 -133.8510  181.6090 N.3   151  TYR151     -0.1227
    163  CA        27.8850 -132.5840  182.3080 C.3   151  TYR151      0.1736
    164  C         26.6040 -131.7720  182.1350 C.2   151  TYR151      0.2595
    165  O         26.4190 -130.7850  182.8550 O.2   151  TYR151     -0.2718
    166  CB        29.0650 -131.6600  182.0000 C.3   151  TYR151      0.0548
    167  CG        30.3950 -132.1670  182.5010 C.ar  151  TYR151     -0.0200
    168  CD1       30.7250 -132.0930  183.8550 C.ar  151  TYR151     -0.0009
    169  CD2       31.3250 -132.7270  181.6230 C.ar  151  TYR151     -0.0009
    170  CE1       31.9510 -132.5640  184.3250 C.ar  151  TYR151      0.0417
    171  CE2       32.5550 -133.2010  182.0810 C.ar  151  TYR151      0.0417
    172  CZ        32.8610 -133.1150  183.4340 C.ar  151  TYR151      0.1957
    173  OH        34.0800 -133.5670  183.8910 O.3   151  TYR151     -0.2866
    174  N         25.7180 -132.1500  181.2150 N.am  152  GLN152     -0.1979
    175  CA        24.5110 -131.3460  181.0110 C.3   152  GLN152      0.1601
    176  C         23.6300 -131.1390  182.2460 C.2   152  GLN152      0.2287
    177  O         23.2100 -130.0180  182.5220 O.2   152  GLN152     -0.2864
    178  CB        23.6650 -131.9000  179.8600 C.3   152  GLN152      0.0394
    179  CG        22.4110 -131.0590  179.5960 C.3   152  GLN152      0.0908
    180  CD        21.8170 -131.2770  178.2140 C.2   152  GLN152      0.2608
    181  OE1       21.4100 -132.3850  177.8700 O.2   152  GLN152     -0.2717
    182  NE2       21.7680 -130.2150  177.4140 N.am  152  GLN152     -0.0878
    183  N         25.3660 -128.7820  184.4940 N.3   155  SER155     -0.1202
    184  CA        25.3290 -127.4540  183.9130 C.3   155  SER155      0.2020
    185  C         23.9970 -126.7970  184.2560 C.2   155  SER155      0.2618
    186  O         23.9590 -125.6460  184.6830 O.2   155  SER155     -0.2717
    187  CB        25.4980 -127.5470  182.3940 C.3   155  SER155      0.2103
    188  OG        25.2680 -126.2990  181.7750 O.3   155  SER155     -0.2182
    189  N         22.9080 -127.5390  184.0750 N.am  156  ALA156     -0.1979
    190  CA        21.5750 -127.0220  184.3670 C.3   156  ALA156      0.1597
    191  C         21.4720 -126.5710  185.8150 C.2   156  ALA156      0.2287
    192  O         20.9700 -125.4820  186.1050 O.2   156  ALA156     -0.2864
    193  CB        20.5290 -128.0820  184.0870 C.3   156  ALA156      0.0319
    194  N         23.4690 -123.4800  186.5290 N.3   159  HIS159     -0.1241
    195  CA        22.8170 -122.3150  185.9400 C.3   159  HIS159      0.1621
    196  C         21.5650 -121.9280  186.7200 C.2   159  HIS159      0.2264
    197  O         21.2550 -120.7490  186.8500 O.2   159  HIS159     -0.2867
    198  CB        22.4610 -122.5670  184.4750 C.3   159  HIS159      0.0745
    199  CG        21.9130 -121.3600  183.7820 C.ar  159  HIS159      0.0817
    200  ND1       20.6030 -121.2710  183.3620 N.ar  159  HIS159     -0.2268
    201  CD2       22.4830 -120.1690  183.4870 C.ar  159  HIS159      0.1154
    202  CE1       20.3910 -120.0770  182.8380 C.ar  159  HIS159      0.1986
    203  NE2       21.5170 -119.3890  182.9030 N.ar  159  HIS159     -0.2212
@<TRIPOS>BOND
     1    85    84    1
     2    89    88    2
     3    84    81    1
     4    88    87    1
     5    81    82    1
     6    81    80    1
     7    86    87    1
     8    86    82   am
     9    92    91    2
    10    87    90    1
    11    82    83    2
    12   145   143   am
    13    80    74   am
    14    75    74    2
    15    91    93   am
    16    91    90    1
    17    74    73    1
    18   143   142    1
    19   143   144    2
    20   142   139    1
    21    94    95    1
    22    76    73    1
    23    76    77    1
    24    73    72    1
    25   130   131    1
    26    98    95    1
    27    98    99    1
    28    97    96    2
    29   139   138    1
    30   139   140    1
    31   141   140    2
    32   101    99    1
    33   138   132   am
    34    95    96    1
    35   132   131    1
    36   132   133    2
    37   131   134    1
    38    78    77    1
    39    77    79    1
    40    99   100    1
    41   107   108    1
    42   107   106    1
    43   161   159    1
    44   108   102    1
    45   117   115   am
    46   134   135    1
    47    71    69    1
    48   137   135    1
    49   135   136    1
    50   106   103    1
    51   160   159    1
    52   159   158    2
    53   115   116    2
    54   115   114    1
    55   102   103    1
    56    67    66    1
    57    67    68    2
    58   103   104    1
    59    69    66    1
    60    69    70    1
    61   158   157    1
    62    66    65    1
    63   114   113    1
    64    28    25    1
    65    39    38   ar
    66    39    37   ar
    67   104   109   am
    68   104   105    2
    69    38    36   ar
    70   109   110    1
    71   113   110    1
    72    37    35   ar
    73   157   156    1
    74    25    26    1
    75    25    24    1
    76    27    26    2
    77    26    29   am
    78   110   111    1
    79    36    34   ar
    80   155   156    1
    81   155   152    1
    82    35    34   ar
    83   146   147    1
    84   150   147    1
    85    24    19   am
    86    29    30    1
    87    34    33    1
    88    15    14   ar
    89   112   111    2
    90    22    21    1
    91   151   152    1
    92   151   148   am
    93   111   118   am
    94    30    33    1
    95    30    31    1
    96    16    14   ar
    97   147   148    1
    98    20    19    2
    99   182   180   am
   100    19    18    1
   101   152   153    1
   102    14    13    1
   103    64    62    1
   104   181   180    2
   105   148   149    2
   106   118   119    1
   107    31    32    2
   108   180   179    1
   109    21    23    1
   110    21    18    1
   111   153   154    2
   112    18    17    1
   113    60    59    1
   114    60    61    2
   115    13    10    1
   116    62    59    1
   117    62    63    1
   118    17    11   am
   119   119   120    1
   120   119   122    1
   121    59    58    1
   122    12    11    2
   123    11    10    1
   124   179   178    1
   125   129   123    1
   126   129   128    1
   127   125   126    2
   128   125   124    1
   129   120   123   am
   130   120   121    2
   131   178   175    1
   132    10     9    1
   133   123   124    1
   134   127   124    1
   135   127   128    1
   136    47    46    2
   137    57    56    1
   138   175   174    1
   139   175   176    1
   140   174   164   am
   141    46    48   am
   142    46    45    1
   143   162   163    1
   144   169   171   ar
   145   169   167   ar
   146    45    44    1
   147   188   187    1
   148   166   163    1
   149   166   167    1
   150   171   172   ar
   151   164   163    1
   152   164   165    2
   153    40    41    1
   154   176   177    2
   155    56    55    1
   156   187   184    1
   157   167   168   ar
   158    44    41    1
   159   202   203   ar
   160   202   200   ar
   161   203   201   ar
   162    41    42    1
   163   200   199   ar
   164     7     5    1
   165    55    54    1
   166   172   173    1
   167   172   170   ar
   168   201   199   ar
   169     8     6    1
   170    54    53    1
   171    52    51    2
   172   199   198    1
   173   168   170   ar
   174   184   185    1
   175   184   183    1
   176    51    50    1
   177   189   185   am
   178   189   190    1
   179   193   190    1
   180    43    42    2
   181   185   186    2
   182   190   191    1
   183   198   195    1
   184     5     6    1
   185     5     2    1
   186    53    50    1
   187    50    49    1
   188   191   192    2
   189     2     1    1
   190     2     3    1
   191   195   194    1
   192   195   196    1
   193     3     4    2
   194   196   197    2
