@<TRIPOS>MOLECULE
tmp/3auyA00.pdb
 132 124 0 0 0
SMALL
GASTEIGER

@<TRIPOS>ATOM
      1  N        -86.9680    1.2190  -19.1000 N.3    14  LYS14      -0.1231
      2  CA       -87.6400    1.8480  -20.2250 C.3    14  LYS14       0.1693
      3  C        -86.5880    2.3950  -21.1900 C.2    14  LYS14       0.2592
      4  O        -85.6900    1.6630  -21.5970 O.2    14  LYS14      -0.2718
      5  CB       -88.5740    2.9490  -19.7170 C.3    14  LYS14       0.0285
      6  CG       -89.4730    2.4310  -18.6090 C.3    14  LYS14       0.0035
      7  CD       -90.3760    3.4820  -18.0230 C.3    14  LYS14       0.0206
      8  CE       -91.5390    3.7770  -18.9370 C.3    14  LYS14       0.1093
      9  NZ       -92.7260    4.2500  -18.1590 N.3    14  LYS14      -0.1314
     10  N        -86.6690    3.6670  -21.5510 N.am   15  SER15      -0.1952
     11  CA       -85.7020    4.2130  -22.4970 C.3    15  SER15       0.1924
     12  C        -84.2790    4.3750  -21.9410 C.2    15  SER15       0.2314
     13  O        -83.3270    4.6510  -22.6940 O.2    15  SER15      -0.2863
     14  CB       -86.2080    5.5510  -23.0330 C.3    15  SER15       0.2116
     15  OG       -86.4050    6.4520  -21.9710 O.3    15  SER15      -0.2180
     16  N        -90.0170   16.2400  -25.7780 N.3    34  ASN34      -0.1225
     17  CA       -91.1190   15.4200  -25.3260 C.3    34  ASN34       0.1785
     18  C        -90.7900   13.9670  -25.6770 C.2    34  ASN34       0.2598
     19  O        -90.2870   13.6880  -26.7570 O.2    34  ASN34      -0.2718
     20  CB       -92.3850   15.8600  -26.0410 C.3    34  ASN34       0.1169
     21  CG       -93.6120   15.6640  -25.2050 C.2    34  ASN34       0.2627
     22  OD1      -93.7700   16.3020  -24.1580 O.2    34  ASN34      -0.2716
     23  ND2      -94.4960   14.7740  -25.6520 N.am   34  ASN34      -0.0877
     24  N        -91.0510   13.0410  -24.7620 N.am   35  GLY35      -0.1942
     25  CA       -90.7620   11.6430  -25.0380 C.3    35  GLY35       0.2014
     26  C        -89.2890   11.2470  -24.9850 C.2    35  GLY35       0.2640
     27  O        -88.9420   10.0850  -25.2320 O.2    35  GLY35      -0.2714
     28  N        -88.4170   12.1990  -24.6480 N.am   36  SER36      -0.1935
     29  CA       -86.9780   11.9310  -24.5700 C.3    36  SER36       0.2055
     30  C        -86.5530   11.0810  -23.3640 C.2    36  SER36       0.2644
     31  O        -85.3900   10.7100  -23.2610 O.2    36  SER36      -0.2714
     32  CB       -86.1880   13.2490  -24.5810 C.3    36  SER36       0.2130
     33  OG       -86.5540   14.0810  -23.4980 O.3    36  SER36      -0.2179
     34  N        -87.4860   10.7790  -22.4620 N.am   37  GLY37      -0.1939
     35  CA       -87.1660    9.9510  -21.3060 C.3    37  GLY37       0.2014
     36  C        -87.0360   10.6540  -19.9610 C.2    37  GLY37       0.2639
     37  O        -86.5170   10.0810  -19.0050 O.2    37  GLY37      -0.2714
     38  N        -87.5210   11.8890  -19.8760 N.am   38  LYS38      -0.1963
     39  CA       -87.4360   12.6720  -18.6480 C.3    38  LYS38       0.1728
     40  C        -88.1770   12.0360  -17.4830 C.2    38  LYS38       0.2617
     41  O        -87.5830   11.7270  -16.4540 O.2    38  LYS38      -0.2715
     42  CB       -87.9980   14.0730  -18.8790 C.3    38  LYS38       0.0311
     43  CG       -87.3330   14.8450  -20.0020 C.3    38  LYS38       0.0038
     44  CD       -87.9450   16.2400  -20.1910 C.3    38  LYS38       0.0206
     45  CE       -89.4420   16.1880  -20.4840 C.3    38  LYS38       0.1093
     46  NZ       -89.7840   15.6530  -21.8170 N.3    38  LYS38      -0.1314
     47  N        -89.4810   11.8430  -17.6460 N.am   39  SER39      -0.1936
     48  CA       -90.2990   11.2810  -16.5790 C.3    39  SER39       0.2055
     49  C        -89.8820    9.9050  -16.1160 C.2    39  SER39       0.2643
     50  O        -90.0150    9.5900  -14.9450 O.2    39  SER39      -0.2714
     51  CB       -91.7660   11.2680  -16.9880 C.3    39  SER39       0.2130
     52  OG       -92.2600   12.5870  -17.0660 O.3    39  SER39      -0.2179
     53  N        -89.3810    9.0790  -17.0250 N.am   40  SER40      -0.1949
     54  CA       -88.9570    7.7490  -16.6240 C.3    40  SER40       0.1924
     55  C        -87.9520    7.8790  -15.4800 C.2    40  SER40       0.2314
     56  O        -87.9740    7.0940  -14.5210 O.2    40  SER40      -0.2863
     57  CB       -88.3150    7.0080  -17.7960 C.3    40  SER40       0.2116
     58  OG       -89.2840    6.6490  -18.7610 O.3    40  SER40      -0.2180
     59  N        -89.8120    7.8080  -12.3650 N.3    43  GLU43      -0.1245
     60  CA       -90.5620    6.5930  -12.1300 C.3    43  GLU43       0.1567
     61  C        -89.5570    5.6140  -11.5410 C.2    43  GLU43       0.2260
     62  O        -89.8650    4.8450  -10.6390 O.2    43  GLU43      -0.2867
     63  CB       -91.1190    6.0610  -13.4430 C.3    43  GLU43       0.0388
     64  CG       -92.0730    7.0370  -14.1340 C.3    43  GLU43       0.1160
     65  CD       -92.4810    6.5860  -15.5320 C.2    43  GLU43       0.3649
     66  OE1      -93.2100    7.3520  -16.1960 O.co2  43  GLU43      -0.2457
     67  OE2      -92.0720    5.4790  -15.9620 O.co2  43  GLU43      -0.2457
     68  N        -93.0070   -5.8190  -17.1600 N.3    58  ASP58      -0.1225
     69  CA       -92.9400   -5.6330  -18.6050 C.3    58  ASP58       0.1805
     70  C        -93.0020   -4.1280  -18.8850 C.2    58  ASP58       0.2598
     71  O        -92.5140   -3.6540  -19.9120 O.2    58  ASP58      -0.2718
     72  CB       -94.1190   -6.3540  -19.2810 C.3    58  ASP58       0.1424
     73  CG       -93.6780   -7.3150  -20.3840 C.2    58  ASP58       0.3668
     74  OD1      -92.5020   -7.7410  -20.3650 O.co2  58  ASP58      -0.2456
     75  OD2      -94.5120   -7.6560  -21.2600 O.co2  58  ASP58      -0.2456
     76  N        -93.5790   -3.3840  -17.9440 N.am   59  THR59      -0.1953
     77  CA       -93.7290   -1.9360  -18.0750 C.3    59  THR59       0.1897
     78  C        -92.4860   -1.0960  -17.8030 C.2    59  THR59       0.2313
     79  O        -92.4200    0.0480  -18.2420 O.2    59  THR59      -0.2863
     80  CB       -94.8270   -1.4030  -17.1430 C.3    59  THR59       0.1794
     81  OG1      -94.3440   -1.3860  -15.7930 O.3    59  THR59      -0.2208
     82  CG2      -96.0600   -2.2850  -17.2250 C.3    59  THR59       0.0378
     83  N        -89.0670   -2.6370  -17.8510 N.3    61  ILE61      -0.1231
     84  CA       -87.8920   -3.2460  -18.4640 C.3    61  ILE61       0.1692
     85  C        -87.7780   -2.8710  -19.9370 C.2    61  ILE61       0.2593
     86  O        -88.7440   -2.9830  -20.7000 O.2    61  ILE61      -0.2718
     87  CB       -87.9310   -4.7810  -18.3680 C.3    61  ILE61       0.0266
     88  CG1      -88.0570   -5.2210  -16.9120 C.3    61  ILE61       0.0019
     89  CG2      -86.6650   -5.3620  -18.9660 C.3    61  ILE61       0.0020
     90  CD1      -88.2710   -6.7090  -16.7360 C.3    61  ILE61       0.0001
     91  N        -86.5930   -2.4250  -20.3350 N.am   62  THR62      -0.1939
     92  CA       -86.3430   -2.0390  -21.7200 C.3    62  THR62       0.2028
     93  C        -86.8480   -3.1040  -22.6860 C.2    62  THR62       0.2642
     94  O        -86.5310   -4.2850  -22.5210 O.2    62  THR62      -0.2714
     95  CB       -84.8380   -1.8490  -21.9630 C.3    62  THR62       0.1808
     96  OG1      -84.3750   -0.7420  -21.1850 O.3    62  THR62      -0.2208
     97  CG2      -84.5500   -1.5990  -23.4370 C.3    62  THR62       0.0379
     98  N        -87.6260   -2.6930  -23.6880 N.am   63  LYS63      -0.1977
     99  CA       -88.1440   -3.6440  -24.6710 C.3    63  LYS63       0.1596
    100  C        -86.9820   -4.3580  -25.3490 C.2    63  LYS63       0.2287
    101  O        -86.1080   -3.7290  -25.9490 O.2    63  LYS63      -0.2864
    102  CB       -89.0130   -2.9460  -25.7210 C.3    63  LYS63       0.0298
    103  CG       -90.4290   -2.6290  -25.2480 C.3    63  LYS63       0.0038
    104  CD       -91.0460   -1.5000  -26.0790 C.3    63  LYS63       0.0206
    105  CE       -92.2050   -0.8360  -25.3350 C.3    63  LYS63       0.1093
    106  NZ       -92.4670    0.5270  -25.8650 N.3    63  LYS63      -0.1314
    107  N        -93.2190   19.1390  -15.7800 N.3   308  GLU308     -0.1245
    108  CA       -93.8180   20.0750  -16.7400 C.3   308  GLU308      0.1567
    109  C        -94.8120   21.0440  -16.0980 C.2   308  GLU308      0.2260
    110  O        -95.9690   21.1670  -16.4960 O.2   308  GLU308     -0.2867
    111  CB       -94.4670   19.2750  -17.8730 C.3   308  GLU308      0.0388
    112  CG       -93.4370   18.7950  -18.8760 C.3   308  GLU308      0.1160
    113  CD       -93.9670   17.7610  -19.8230 C.2   308  GLU308      0.3649
    114  OE1      -95.0870   17.9560  -20.3420 O.co2 308  GLU308     -0.2457
    115  OE2      -93.2560   16.7610  -20.0590 O.co2 308  GLU308     -0.2457
    116  N        -83.4260   11.6560  -26.4600 N.3   355  LYS355     -0.1245
    117  CA       -83.6420   10.2940  -26.9200 C.3   355  LYS355      0.1561
    118  C        -82.8080   10.0890  -28.1750 C.2   355  LYS355      0.2260
    119  O        -82.8440   10.8920  -29.1010 O.2   355  LYS355     -0.2867
    120  CB       -85.1260   10.0780  -27.2300 C.3   355  LYS355      0.0271
    121  CG       -85.5870    8.6260  -27.2610 C.3   355  LYS355      0.0035
    122  CD       -87.0480    8.5520  -27.7130 C.3   355  LYS355      0.0206
    123  CE       -87.6240    7.1560  -27.5870 C.3   355  LYS355      0.1093
    124  NZ       -87.6670    6.7000  -26.1690 N.3   355  LYS355     -0.1314
    125  N        -84.7420    5.5440  -29.4250 N.3   358  ASN358     -0.1240
    126  CA       -85.2320    4.6610  -28.3690 C.3   358  ASN358      0.1653
    127  C        -84.2020    4.2980  -27.3010 C.2   358  ASN358      0.2266
    128  O        -84.1950    3.1870  -26.7730 O.2   358  ASN358     -0.2867
    129  CB       -85.8470    3.3950  -28.9830 C.3   358  ASN358      0.1155
    130  CG       -87.3890    3.4320  -28.9900 C.2   358  ASN358      0.2627
    131  OD1      -88.0450    2.6550  -29.7020 O.2   358  ASN358     -0.2716
    132  ND2      -87.9670    4.3260  -28.1830 N.am  358  ASN358     -0.0877
@<TRIPOS>BOND
     1   131   130    2
     2   125   126    1
     3   119   118    2
     4   130   129    1
     5   130   132   am
     6   129   126    1
     7   126   127    1
     8   118   117    1
     9   122   123    1
    10   122   121    1
    11   123   124    1
    12   127   128    2
    13   121   120    1
    14   120   117    1
    15   117   116    1
    16    19    18    2
    17   104   105    1
    18   104   103    1
    19    20    17    1
    20    20    21    1
    21   101   100    2
    22   106   105    1
    23    16    17    1
    24   102   103    1
    25   102    99    1
    26    18    17    1
    27    18    24   am
    28    23    21   am
    29   100    99    1
    30    27    26    2
    31    21    22    2
    32    25    26    1
    33    25    24    1
    34    26    28   am
    35    99    98    1
    36    28    29    1
    37    32    29    1
    38    32    33    1
    39    29    30    1
    40    98    93   am
    41    97    95    1
    42    30    31    2
    43    30    34   am
    44    14    11    1
    45    14    15    1
    46    13    12    2
    47    93    94    2
    48    93    92    1
    49    11    12    1
    50    11    10    1
    51    34    35    1
    52    95    92    1
    53    95    96    1
    54    46    45    1
    55    92    91    1
    56     4     3    2
    57    10     3   am
    58    35    36    1
    59    75    73   ar
    60     3     2    1
    61    86    85    2
    62    45    44    1
    63    73    74   ar
    64    73    72    1
    65   114   113   ar
    66    91    85   am
    67     2     5    1
    68     2     1    1
    69    44    43    1
    70   115   113   ar
    71    43    42    1
    72    36    38   am
    73    36    37    2
    74    85    84    1
    75    71    70    2
    76    38    39    1
    77   113   112    1
    78     5     6    1
    79    72    69    1
    80    89    87    1
    81     8     9    1
    82     8     7    1
    83    70    69    1
    84    70    76   am
    85    42    39    1
    86   112   111    1
    87    58    57    1
    88    39    40    1
    89     6     7    1
    90    69    68    1
    91    84    87    1
    92    84    83    1
    93    87    88    1
    94    79    78    2
    95    77    76    1
    96    77    78    1
    97    77    80    1
    98   111   108    1
    99    57    54    1
   100    47    40   am
   101    47    48    1
   102    40    41    2
   103    82    80    1
   104    80    81    1
   105    52    51    1
   106    53    54    1
   107    53    49   am
   108    51    48    1
   109    88    90    1
   110   108   109    1
   111   108   107    1
   112    54    55    1
   113    48    49    1
   114   110   109    2
   115    66    65   ar
   116    49    50    2
   117    67    65   ar
   118    65    64    1
   119    55    56    2
   120    64    63    1
   121    63    60    1
   122    59    60    1
   123    60    61    1
   124    61    62    2
