@<TRIPOS>MOLECULE
tmp/3av7B01.pdb
 133 128 0 0 0
SMALL
GASTEIGER

@<TRIPOS>ATOM
      1  N        -22.0480    4.6330  -10.1580 N.3    23  ARG23      -0.1245
      2  CA       -20.6320    4.2620  -10.2710 C.3    23  ARG23       0.1563
      3  C        -20.4400    3.0540  -11.2000 C.2    23  ARG23       0.2260
      4  O        -19.5120    3.0120  -12.0170 O.2    23  ARG23      -0.2867
      5  CB       -19.9780    4.0630   -8.8900 C.3    23  ARG23       0.0307
      6  CG       -18.5080    3.7550   -8.9400 C.3    23  ARG23       0.0489
      7  CD       -18.0730    3.3290   -7.5460 C.3    23  ARG23       0.2205
      8  NE       -17.0440    2.2900   -7.4980 N.pl3  23  ARG23      -0.0865
      9  CZ       -15.7450    2.5240   -7.2840 C.cat  23  ARG23       0.5346
     10  NH1      -15.2920    3.7730   -7.1420 N.pl3  23  ARG23       0.1354
     11  NH2      -14.8900    1.5020   -7.2220 N.pl3  23  ARG23       0.1354
     12  N        -16.3230   12.0580  -16.5730 N.3    38  ALA38      -0.1231
     13  CA       -16.7630   11.6380  -15.2530 C.3    38  ALA38       0.1694
     14  C        -15.6540   11.1690  -14.2990 C.2    38  ALA38       0.2593
     15  O        -15.9290   10.9680  -13.1380 O.2    38  ALA38      -0.2718
     16  CB       -17.8290   10.5440  -15.3470 C.3    38  ALA38       0.0304
     17  N        -14.4270   11.0520  -14.7580 N.am   39  GLY39      -0.1942
     18  CA       -13.4400   10.3220  -13.9480 C.3    39  GLY39       0.2014
     19  C        -12.7170   11.2870  -13.0330 C.2    39  GLY39       0.2639
     20  O        -12.8500   12.4820  -13.1650 O.2    39  GLY39      -0.2714
     21  N        -11.9920   10.7720  -12.0450 N.am   40  GLY40      -0.1939
     22  CA       -11.1830   11.6290  -11.1890 C.3    40  GLY40       0.2014
     23  C         -9.7300   11.2160  -11.2650 C.2    40  GLY40       0.2639
     24  O         -9.0250   11.2520  -10.2660 O.2    40  GLY40      -0.2714
     25  N         -9.3010   10.8020  -12.4640 N.am   41  LEU41      -0.1963
     26  CA        -7.9490   10.2910  -12.7140 C.3    41  LEU41       0.1713
     27  C         -7.0400   11.4170  -13.1970 C.2    41  LEU41       0.2458
     28  O         -7.4500   12.2010  -14.0890 O.2    41  LEU41      -0.2730
     29  CB        -8.0060    9.1530  -13.7640 C.3    41  LEU41       0.0310
     30  CG        -8.8280    7.9070  -13.4470 C.3    41  LEU41       0.0022
     31  CD1       -8.6690    6.8250  -14.5430 C.3    41  LEU41       0.0001
     32  CD2       -8.4160    7.3330  -12.0940 C.3    41  LEU41       0.0001
     33  N         -5.8390   11.5350  -12.6070 N.am   42  PRO42      -0.2727
     34  CA        -4.8300   12.4170  -13.2380 C.3    42  PRO42       0.1402
     35  C         -4.3290   11.7990  -14.5920 C.2    42  PRO42       0.2269
     36  O         -4.5480   10.6120  -14.8930 O.2    42  PRO42      -0.2865
     37  CB        -3.7110   12.4860  -12.1970 C.3    42  PRO42       0.0296
     38  CG        -3.7240   11.1390  -11.4960 C.3    42  PRO42       0.0237
     39  CD        -5.2450   10.7260  -11.4860 C.3    42  PRO42       0.0939
     40  N        -16.2260   15.8930   -1.0400 N.3   130  TYR130     -0.1227
     41  CA       -15.6220   14.7260   -1.6750 C.3   130  TYR130      0.1736
     42  C        -16.3810   13.4360   -1.2990 C.2   130  TYR130      0.2595
     43  O        -16.4520   13.0780   -0.1240 O.2   130  TYR130     -0.2718
     44  CB       -14.2170   14.6410   -1.1580 C.3   130  TYR130      0.0548
     45  CG       -13.4500   13.4020   -1.5360 C.ar  130  TYR130     -0.0200
     46  CD1      -13.4050   12.9210   -2.8730 C.ar  130  TYR130     -0.0009
     47  CD2      -12.6900   12.7590   -0.5970 C.ar  130  TYR130     -0.0009
     48  CE1      -12.6770   11.7830   -3.2140 C.ar  130  TYR130      0.0417
     49  CE2      -11.9460   11.5900   -0.9470 C.ar  130  TYR130      0.0417
     50  CZ       -11.9270   11.1430   -2.2350 C.ar  130  TYR130      0.1957
     51  OH       -11.2030   10.0350   -2.4840 O.3   130  TYR130     -0.2866
     52  N        -16.9120   12.7540   -2.3060 N.am  131  LEU131     -0.1966
     53  CA       -17.8020   11.6120   -2.1420 C.3   131  LEU131      0.1728
     54  C        -17.1840   10.5140   -1.2700 C.2   131  LEU131      0.2616
     55  O        -17.8500   10.0220   -0.3380 O.2   131  LEU131     -0.2715
     56  CB       -18.1330   11.0230   -3.5230 C.3   131  LEU131      0.0311
     57  CG       -18.9770    9.7180   -3.6030 C.3   131  LEU131      0.0022
     58  CD1      -20.0190    9.6290   -2.5280 C.3   131  LEU131      0.0001
     59  CD2      -19.5740    9.6210   -5.0410 C.3   131  LEU131      0.0001
     60  N        -15.9250   10.1580   -1.5340 N.am  132  ALA132     -0.1977
     61  CA       -15.3200    9.0600   -0.7560 C.3   132  ALA132      0.1597
     62  C        -14.9270    9.4610    0.6990 C.2   132  ALA132      0.2287
     63  O        -14.6850    8.5590    1.5360 O.2   132  ALA132     -0.2864
     64  CB       -14.1060    8.4160   -1.5370 C.3   132  ALA132      0.0319
     65  N        -12.4140   19.0230   -4.7800 N.3   184  ASN184     -0.1240
     66  CA       -13.0970   17.9130   -5.4730 C.3   184  ASN184      0.1653
     67  C        -14.4660   17.7930   -4.7550 C.2   184  ASN184      0.2266
     68  O        -14.5200   17.3680   -3.5870 O.2   184  ASN184     -0.2867
     69  CB       -12.2990   16.6020   -5.3370 C.3   184  ASN184      0.1155
     70  CG       -13.0260   15.3790   -5.9610 C.2   184  ASN184      0.2627
     71  OD1      -14.0700   15.5410   -6.6010 O.2   184  ASN184     -0.2716
     72  ND2      -12.4660   14.1820   -5.8020 N.am  184  ASN184     -0.0877
     73  N         -4.7680   18.9470   -4.0420 N.3   215  TYR215     -0.1241
     74  CA        -4.7120   19.6840   -5.3410 C.3   215  TYR215      0.1605
     75  C         -3.8980   20.9620   -5.3530 C.2   215  TYR215      0.2264
     76  O         -3.6950   21.5180   -6.4390 O.2   215  TYR215     -0.2867
     77  CB        -6.1310   19.9950   -5.9100 C.3   215  TYR215      0.0534
     78  CG        -6.9100   18.7030   -6.0370 C.ar  215  TYR215     -0.0201
     79  CD1       -6.6430   17.7840   -7.0700 C.ar  215  TYR215     -0.0009
     80  CD2       -7.9080   18.3980   -5.1070 C.ar  215  TYR215     -0.0009
     81  CE1       -7.3780   16.5500   -7.1420 C.ar  215  TYR215      0.0417
     82  CE2       -8.6550   17.2150   -5.1710 C.ar  215  TYR215      0.0417
     83  CZ        -8.3630   16.2760   -6.1920 C.ar  215  TYR215      0.1957
     84  OH        -9.0820   15.0690   -6.2380 O.3   215  TYR215     -0.2866
     85  N         -1.5220   13.2530   -6.9730 N.3   245  LYS245     -0.1245
     86  CA        -1.6280   14.1600   -8.0950 C.3   245  LYS245      0.1561
     87  C         -0.3050   14.8140   -8.4800 C.2   245  LYS245      0.2260
     88  O         -0.2240   15.4670   -9.5030 O.2   245  LYS245     -0.2867
     89  CB        -2.7370   15.1860   -7.8930 C.3   245  LYS245      0.0271
     90  CG        -3.9620   14.6530   -7.1800 C.3   245  LYS245      0.0035
     91  CD        -4.6470   13.5440   -7.9650 C.3   245  LYS245      0.0206
     92  CE        -5.9750   13.1230   -7.3430 C.3   245  LYS245      0.1093
     93  NZ        -5.8250   12.5750   -5.9790 N.3   245  LYS245     -0.1314
     94  N        -11.1840   19.7130  -11.7170 N.3   334  PHE334     -0.1298
     95  CA       -12.6390   19.6730  -11.8440 C.3   334  PHE334      0.1290
     96  C        -13.2550   21.0410  -12.0350 C.3   334  PHE334      0.2013
     97  O        -12.7920   22.0850  -11.4220 O.3   334  PHE334     -0.2188
     98  CB       -13.2760   19.0340  -10.5960 C.3   334  PHE334      0.0480
     99  CG       -12.7550   17.6640  -10.3000 C.ar  334  PHE334     -0.0206
    100  CD1      -13.0430   16.5990  -11.1840 C.ar  334  PHE334     -0.0042
    101  CD2      -12.0120   17.4210   -9.1380 C.ar  334  PHE334     -0.0042
    102  CE1      -12.5570   15.3290  -10.9850 C.ar  334  PHE334     -0.0003
    103  CE2      -11.5180   16.1370   -8.8890 C.ar  334  PHE334     -0.0003
    104  CZ       -11.7940   15.0850   -9.8170 C.ar  334  PHE334     -0.0000
    105  N        -20.1820   12.9230  -13.8100 N.3   360  VAL360     -0.1245
    106  CA       -20.7600   12.3570  -12.5950 C.3   360  VAL360      0.1561
    107  C        -21.8720   13.2670  -12.0810 C.2   360  VAL360      0.2260
    108  O        -21.6430   14.4410  -11.8460 O.2   360  VAL360     -0.2867
    109  CB       -19.7240   12.2650  -11.4010 C.3   360  VAL360      0.0252
    110  CG1      -20.3260   11.3800  -10.3110 C.3   360  VAL360      0.0019
    111  CG2      -18.3330   11.7660  -11.8770 C.3   360  VAL360      0.0019
    112  N        -22.4680   13.6400   -4.0890 N.3   365  PHE365     -0.1241
    113  CA       -21.5250   14.4940   -3.3670 C.3   365  PHE365      0.1605
    114  C        -22.1650   15.3000   -2.2260 C.2   365  PHE365      0.2264
    115  O        -21.4710   16.0130   -1.4730 O.2   365  PHE365     -0.2867
    116  CB       -20.7490   15.4240   -4.3000 C.3   365  PHE365      0.0534
    117  CG       -19.9520   14.7060   -5.3530 C.ar  365  PHE365     -0.0203
    118  CD1      -18.5850   14.4340   -5.1560 C.ar  365  PHE365     -0.0042
    119  CD2      -20.5330   14.3420   -6.5640 C.ar  365  PHE365     -0.0042
    120  CE1      -17.8400   13.8090   -6.1250 C.ar  365  PHE365     -0.0003
    121  CE2      -19.7800   13.6620   -7.5670 C.ar  365  PHE365     -0.0003
    122  CZ       -18.4330   13.4000   -7.3330 C.ar  365  PHE365     -0.0000
    123  N        -20.2060   17.0450  -11.9020 N.3   376  ARG376     -0.1245
    124  CA       -18.7700   17.2540  -11.8520 C.3   376  ARG376      0.1563
    125  C        -18.1580   16.8380  -13.1960 C.2   376  ARG376      0.2260
    126  O        -18.5010   15.7530  -13.7190 O.2   376  ARG376     -0.2867
    127  CB       -18.1350   16.4710  -10.7160 C.3   376  ARG376      0.0307
    128  CG       -16.6190   16.7700  -10.6100 C.3   376  ARG376      0.0489
    129  CD       -15.9920   15.7040   -9.7250 C.3   376  ARG376      0.2205
    130  NE       -15.7660   14.4020  -10.3930 N.pl3 376  ARG376     -0.0865
    131  CZ       -15.1970   13.3630   -9.7870 C.cat 376  ARG376      0.5346
    132  NH1      -14.8320   13.4320   -8.5030 N.pl3 376  ARG376      0.1354
    133  NH2      -14.9730   12.2480  -10.4320 N.pl3 376  ARG376      0.1354
@<TRIPOS>BOND
     1    12    13    1
     2    16    13    1
     3    13    14    1
     4    36    35    2
     5    17    14   am
     6    17    18    1
     7    35    34    1
     8    31    30    1
     9    14    15    2
    10    28    27    2
    11    18    19    1
    12   105   106    1
    13    29    30    1
    14    29    26    1
    15   126   125    2
    16    30    32    1
    17    34    33    1
    18    34    37    1
    19    27    26    1
    20    27    33   am
    21   125   124    1
    22    20    19    2
    23    19    21   am
    24    26    25    1
    25    33    39    1
    26   106   107    1
    27   106   109    1
    28    25    23   am
    29    37    38    1
    30   107   108    2
    31    21    22    1
    32    96    95    1
    33    96    97    1
    34     4     3    2
    35   123   124    1
    36   111   109    1
    37   124   127    1
    38    95    94    1
    39    95    98    1
    40    38    39    1
    41   109   110    1
    42    23    22    1
    43    23    24    2
    44     3     2    1
    45   100   102   ar
    46   100    99   ar
    47   102   104   ar
    48   127   128    1
    49   128   129    1
    50    98    99    1
    51   133   131    1
    52   130   131    2
    53   130   129    1
    54    99   101   ar
    55     2     1    1
    56     2     5    1
    57   104   103   ar
    58   131   132    1
    59    88    87    2
    60   101   103   ar
    61     6     5    1
    62     6     7    1
    63    87    86    1
    64    86    89    1
    65    86    85    1
    66    91    92    1
    67    91    90    1
    68    89    90    1
    69   121   122   ar
    70   121   119   ar
    71     7     8    1
    72     8     9    2
    73    92    93    1
    74   122   120   ar
    75     9    11    1
    76     9    10    1
    77    81    79   ar
    78    81    83   ar
    79    79    78   ar
    80    71    70    2
    81   119   117   ar
    82    76    75    2
    83    84    83    1
    84    83    82   ar
    85   120   118   ar
    86    78    77    1
    87    78    80   ar
    88    70    72   am
    89    70    69    1
    90    77    74    1
    91    66    69    1
    92    66    65    1
    93    66    67    1
    94   117   118   ar
    95   117   116    1
    96    75    74    1
    97    74    73    1
    98    82    80   ar
    99    59    57    1
   100    67    68    2
   101   116   113    1
   102   112   113    1
   103    57    56    1
   104    57    58    1
   105    56    53    1
   106   113   114    1
   107    48    46   ar
   108    48    50   ar
   109    46    45   ar
   110    51    50    1
   111    52    53    1
   112    52    42   am
   113    50    49   ar
   114   114   115    2
   115    53    54    1
   116    41    42    1
   117    41    44    1
   118    41    40    1
   119    64    61    1
   120    45    44    1
   121    45    47   ar
   122    60    54   am
   123    60    61    1
   124    42    43    2
   125    54    55    2
   126    49    47   ar
   127    61    62    1
   128    62    63    2
