@<TRIPOS>MOLECULE
tmp/3av7B00.pdb
 125 117 0 0 0
SMALL
GASTEIGER

@<TRIPOS>ATOM
      1  N        -11.9920   10.7720  -12.0450 N.3    40  GLY40      -0.1225
      2  CA       -11.1830   11.6290  -11.1890 C.3    40  GLY40       0.1811
      3  C         -9.7300   11.2160  -11.2650 C.2    40  GLY40       0.2280
      4  O         -9.0250   11.2520  -10.2660 O.2    40  GLY40      -0.2866
      5  N         -2.1460    6.4910    1.0270 N.3   104  GLY104     -0.1210
      6  CA        -2.9850    7.5280    0.4160 C.3   104  GLY104      0.1956
      7  C         -3.7870    8.3180    1.4060 C.2   104  GLY104      0.2613
      8  O         -4.0360    7.8880    2.5770 O.2   104  GLY104     -0.2717
      9  N         -4.2530    9.4870    0.9500 N.am  105  SER105     -0.1938
     10  CA        -5.1530   10.2930    1.7520 C.3   105  SER105      0.2055
     11  C         -6.4560    9.6000    2.1020 C.2   105  SER105      0.2642
     12  O         -7.0740    9.9030    3.1240 O.2   105  SER105     -0.2714
     13  CB        -5.5050   11.5880    1.0010 C.3   105  SER105      0.2130
     14  OG        -4.6110   12.5250    1.4490 O.3   105  SER105     -0.2179
     15  N         -6.9440    8.7100    1.2420 N.am  106  GLN106     -0.1976
     16  CA        -8.1880    8.0330    1.5640 C.3   106  GLN106      0.1601
     17  C         -8.0150    7.2830    2.8860 C.2   106  GLN106      0.2287
     18  O         -8.9590    7.2380    3.7530 O.2   106  GLN106     -0.2864
     19  CB        -8.5390    6.9910    0.5220 C.3   106  GLN106      0.0394
     20  CG        -9.8990    6.3260    0.7080 C.3   106  GLN106      0.0908
     21  CD       -11.0250    7.3860    0.6030 C.2   106  GLN106      0.2608
     22  OE1      -10.8540    8.3600   -0.0840 O.2   106  GLN106     -0.2717
     23  NE2      -12.0910    7.2250    1.3470 N.am  106  GLN106     -0.0878
     24  N         -8.6510    9.3980    5.9330 N.3   109  LEU109     -0.1245
     25  CA       -10.0180    9.6280    6.2390 C.3   109  LEU109      0.1561
     26  C        -10.6530    8.5100    6.9910 C.2   109  LEU109      0.2260
     27  O        -11.4740    8.7610    7.8670 O.2   109  LEU109     -0.2867
     28  CB       -10.7800    9.8100    4.8830 C.3   109  LEU109      0.0270
     29  CG       -10.2440   11.0860    4.1930 C.3   109  LEU109      0.0019
     30  CD1      -10.8420   11.1340    2.8130 C.3   109  LEU109      0.0001
     31  CD2      -10.4240   12.4450    4.9570 C.3   109  LEU109      0.0001
     32  N        -16.2260   15.8930   -1.0400 N.3   130  TYR130     -0.1241
     33  CA       -15.6220   14.7260   -1.6750 C.3   130  TYR130      0.1605
     34  C        -16.3810   13.4360   -1.2990 C.2   130  TYR130      0.2264
     35  O        -16.4520   13.0780   -0.1240 O.2   130  TYR130     -0.2867
     36  CB       -14.2170   14.6410   -1.1580 C.3   130  TYR130      0.0534
     37  CG       -13.4500   13.4020   -1.5360 C.ar  130  TYR130     -0.0201
     38  CD1      -13.4050   12.9210   -2.8730 C.ar  130  TYR130     -0.0009
     39  CD2      -12.6900   12.7590   -0.5970 C.ar  130  TYR130     -0.0009
     40  CE1      -12.6770   11.7830   -3.2140 C.ar  130  TYR130      0.0417
     41  CE2      -11.9460   11.5900   -0.9470 C.ar  130  TYR130      0.0417
     42  CZ       -11.9270   11.1430   -2.2350 C.ar  130  TYR130      0.1957
     43  OH       -11.2030   10.0350   -2.4840 O.3   130  TYR130     -0.2866
     44  N        -12.3350   20.6630    2.1220 N.3   179  VAL179     -0.1245
     45  CA       -11.3270   20.4650    1.0270 C.3   179  VAL179      0.1561
     46  C        -11.2300   21.8750    0.4480 C.2   179  VAL179      0.2260
     47  O        -12.0040   22.2350   -0.4540 O.2   179  VAL179     -0.2867
     48  CB       -11.9110   19.5210   -0.0850 C.3   179  VAL179      0.0252
     49  CG1      -10.8050   19.1780   -1.1480 C.3   179  VAL179      0.0019
     50  CG2      -12.3970   18.2160    0.5460 C.3   179  VAL179      0.0019
     51  N        -12.4140   19.0230   -4.7800 N.3   184  ASN184     -0.1240
     52  CA       -13.0970   17.9130   -5.4730 C.3   184  ASN184      0.1653
     53  C        -14.4660   17.7930   -4.7550 C.2   184  ASN184      0.2266
     54  O        -14.5200   17.3680   -3.5870 O.2   184  ASN184     -0.2867
     55  CB       -12.2990   16.6020   -5.3370 C.3   184  ASN184      0.1155
     56  CG       -13.0260   15.3790   -5.9610 C.2   184  ASN184      0.2627
     57  OD1      -14.0700   15.5410   -6.6010 O.2   184  ASN184     -0.2716
     58  ND2      -12.4660   14.1820   -5.8020 N.am  184  ASN184     -0.0877
     59  N         -8.0520   18.7290    3.7990 N.3   212  ASP212     -0.1239
     60  CA        -7.6340   17.6340    2.9470 C.3   212  ASP212      0.1674
     61  C         -7.2350   18.3570    1.6660 C.2   212  ASP212      0.2266
     62  O         -8.0990   18.9780    1.0200 O.2   212  ASP212     -0.2867
     63  CB        -8.8790   16.7100    2.7370 C.3   212  ASP212      0.1410
     64  CG        -8.6500   15.5750    1.7520 C.2   212  ASP212      0.3668
     65  OD1       -7.5710   15.4690    1.1620 O.co2 212  ASP212     -0.2456
     66  OD2       -9.5560   14.7450    1.6040 O.co2 212  ASP212     -0.2456
     67  N         -5.3660   17.5390   -1.6960 N.3   214  PRO214     -0.2102
     68  CA        -4.5830   16.8500   -2.7550 C.3   214  PRO214      0.1504
     69  C         -4.1030   17.7790   -3.8690 C.2   214  PRO214      0.2575
     70  O         -3.1530   17.3920   -4.5830 O.2   214  PRO214     -0.2718
     71  CB        -5.5830   15.8680   -3.4020 C.3   214  PRO214      0.0282
     72  CG        -6.8410   15.7880   -2.3950 C.3   214  PRO214      0.0208
     73  CD        -6.8110   17.2140   -1.7210 C.3   214  PRO214      0.0893
     74  N         -4.7680   18.9470   -4.0420 N.am  215  TYR215     -0.1977
     75  CA        -4.7120   19.6840   -5.3410 C.3   215  TYR215      0.1639
     76  C         -3.8980   20.9620   -5.3530 C.2   215  TYR215      0.2290
     77  O         -3.6950   21.5180   -6.4390 O.2   215  TYR215     -0.2864
     78  CB        -6.1310   19.9950   -5.9100 C.3   215  TYR215      0.0560
     79  CG        -6.9100   18.7030   -6.0370 C.ar  215  TYR215     -0.0198
     80  CD1       -6.6430   17.7840   -7.0700 C.ar  215  TYR215     -0.0009
     81  CD2       -7.9080   18.3980   -5.1070 C.ar  215  TYR215     -0.0009
     82  CE1       -7.3780   16.5500   -7.1420 C.ar  215  TYR215      0.0417
     83  CE2       -8.6550   17.2150   -5.1710 C.ar  215  TYR215      0.0417
     84  CZ        -8.3630   16.2760   -6.1920 C.ar  215  TYR215      0.1957
     85  OH        -9.0820   15.0690   -6.2380 O.3   215  TYR215     -0.2866
     86  N         -1.1230   14.2630   -0.2960 N.3   242  THR242     -0.1218
     87  CA        -0.9390   12.9880   -0.9470 C.3   242  THR242      0.1862
     88  C         -0.0410   13.1510   -2.1630 C.2   242  THR242      0.2287
     89  O         -0.0180   14.2530   -2.7480 O.2   242  THR242     -0.2866
     90  CB        -2.3000   12.4000   -1.3400 C.3   242  THR242      0.1770
     91  OG1       -2.0650   11.2540   -2.1140 O.3   242  THR242     -0.2211
     92  CG2       -3.1740   13.4000   -2.1760 C.3   242  THR242      0.0375
     93  N         -0.5410   11.5320   -4.8320 N.3   244  SER244     -0.1202
     94  CA        -1.2980   11.0430   -5.9720 C.3   244  SER244      0.2020
     95  C         -1.3450   11.9620   -7.1860 C.2   244  SER244      0.2618
     96  O         -1.3060   11.4670   -8.3210 O.2   244  SER244     -0.2717
     97  CB        -2.7580   10.7020   -5.5790 C.3   244  SER244      0.2103
     98  OG        -2.7790    9.4750   -4.9000 O.3   244  SER244     -0.2182
     99  N         -1.5220   13.2530   -6.9730 N.am  245  LYS245     -0.1979
    100  CA        -1.6280   14.1600   -8.0950 C.3   245  LYS245      0.1596
    101  C         -0.3050   14.8140   -8.4800 C.2   245  LYS245      0.2287
    102  O         -0.2240   15.4670   -9.5030 O.2   245  LYS245     -0.2864
    103  CB        -2.7370   15.1860   -7.8930 C.3   245  LYS245      0.0298
    104  CG        -3.9620   14.6530   -7.1800 C.3   245  LYS245      0.0038
    105  CD        -4.6470   13.5440   -7.9650 C.3   245  LYS245      0.0206
    106  CE        -5.9750   13.1230   -7.3430 C.3   245  LYS245      0.1093
    107  NZ        -5.8250   12.5750   -5.9790 N.3   245  LYS245     -0.1314
    108  N         -0.6190    8.2620   -8.6560 N.3   249  PRO249     -0.2116
    109  CA        -1.4470    7.6200   -7.6090 C.3   249  PRO249      0.1372
    110  C         -0.9650    6.2140   -7.2140 C.2   249  PRO249      0.2244
    111  O         -1.2370    5.7450   -6.0850 O.2   249  PRO249     -0.2868
    112  CB        -2.7890    7.4590   -8.3090 C.3   249  PRO249      0.0268
    113  CG        -2.7940    8.5810   -9.3530 C.3   249  PRO249      0.0207
    114  CD        -1.3900    8.5130   -9.8920 C.3   249  PRO249      0.0892
    115  N          0.3990    4.8640   -3.7850 N.3   252  ARG252     -0.1245
    116  CA        -0.5510    4.9820   -2.6310 C.3   252  ARG252      0.1563
    117  C          0.1790    5.4390   -1.3900 C.2   252  ARG252      0.2260
    118  O          0.2240    4.6980   -0.3410 O.2   252  ARG252     -0.2867
    119  CB        -1.2350    3.6390   -2.2600 C.3   252  ARG252      0.0307
    120  CG        -1.9070    2.9000   -3.4280 C.3   252  ARG252      0.0489
    121  CD        -2.8770    3.7510   -4.2590 C.3   252  ARG252      0.2205
    122  NE        -4.0380    4.1710   -3.4470 N.pl3 252  ARG252     -0.0865
    123  CZ        -4.3530    5.4500   -3.2520 C.cat 252  ARG252      0.5346
    124  NH1       -3.6390    6.4110   -3.8440 N.pl3 252  ARG252      0.1354
    125  NH2       -5.4000    5.7630   -2.5070 N.pl3 252  ARG252      0.1354
@<TRIPOS>BOND
     1     1     2    1
     2     3     2    1
     3     3     4    2
     4   114   113    1
     5   114   108    1
     6   102   101    2
     7   113   112    1
     8   108   109    1
     9   101   100    1
    10    96    95    2
    11   112   109    1
    12   100   103    1
    13   100    99    1
    14   105   106    1
    15   105   104    1
    16   103   104    1
    17   109   110    1
    18   106   107    1
    19   110   111    2
    20    95    99   am
    21    95    94    1
    22    82    80   ar
    23    82    84   ar
    24    80    79   ar
    25    57    56    2
    26    77    76    2
    27    85    84    1
    28    84    83   ar
    29    79    78    1
    30    79    81   ar
    31    94    97    1
    32    94    93    1
    33    56    58   am
    34    56    55    1
    35    78    75    1
    36    97    98    1
    37    52    55    1
    38    52    51    1
    39    52    53    1
    40    76    75    1
    41    75    74    1
    42    83    81   ar
    43    53    54    2
    44    70    69    2
    45   121   122    1
    46   121   120    1
    47    74    69   am
    48    69    68    1
    49   124   123    1
    50   115   116    1
    51   122   123    2
    52   120   119    1
    53    71    68    1
    54    71    72    1
    55   123   125    1
    56    40    38   ar
    57    40    42   ar
    58    38    37   ar
    59    68    67    1
    60    89    88    2
    61   116   119    1
    62   116   117    1
    63    43    42    1
    64    72    73    1
    65    42    41   ar
    66    92    90    1
    67    88    87    1
    68    91    90    1
    69    73    67    1
    70    33    34    1
    71    33    36    1
    72    33    32    1
    73    37    36    1
    74    37    39   ar
    75   117   118    2
    76    90    87    1
    77    34    35    2
    78    49    48    1
    79    87    86    1
    80    41    39   ar
    81    47    46    2
    82    48    50    1
    83    48    45    1
    84    22    21    2
    85     6     5    1
    86     6     7    1
    87    46    45    1
    88    19    20    1
    89    19    16    1
    90    21    20    1
    91    21    23   am
    92     9     7   am
    93     9    10    1
    94    13    14    1
    95    13    10    1
    96    62    61    2
    97    45    44    1
    98    65    64   ar
    99    15    16    1
   100    15    11   am
   101     7     8    2
   102    16    17    1
   103    66    64   ar
   104    61    60    1
   105    10    11    1
   106    64    63    1
   107    11    12    2
   108    63    60    1
   109    30    29    1
   110    17    18    2
   111    60    59    1
   112    29    28    1
   113    29    31    1
   114    28    25    1
   115    24    25    1
   116    25    26    1
   117    26    27    2
