@<TRIPOS>MOLECULE
tmp/3av7B02.pdb
 111 104 0 0 0
SMALL
GASTEIGER

@<TRIPOS>ATOM
      1  N        -22.9500   -0.7990   -3.4120 N.3    19  ALA19      -0.1231
      2  CA       -22.4260    0.2320   -4.3070 C.3    19  ALA19       0.1694
      3  C        -22.4640   -0.1820   -5.7130 C.2    19  ALA19       0.2593
      4  O        -22.2430   -1.3890   -5.9710 O.2    19  ALA19      -0.2718
      5  CB       -20.9950    0.6890   -3.9090 C.3    19  ALA19       0.0304
      6  N        -22.8020    0.7380   -6.6450 N.am   20  SER20      -0.1938
      7  CA       -23.6340    1.9860   -6.5500 C.3    20  SER20       0.2055
      8  C        -24.0590    2.0610   -8.0070 C.2    20  SER20       0.2643
      9  O        -23.1920    1.9280   -8.8970 O.2    20  SER20      -0.2714
     10  CB       -22.8520    3.2610   -6.2340 C.3    20  SER20       0.2130
     11  OG       -23.3140    4.3750   -7.0540 O.3    20  SER20      -0.2179
     12  N        -25.3490    2.2510   -8.2730 N.am   21  GLU21      -0.1963
     13  CA       -25.8660    2.1870   -9.6580 C.3    21  GLU21       0.1733
     14  C        -25.1060    3.1140  -10.6250 C.2    21  GLU21       0.2616
     15  O        -24.6100    2.6370  -11.6640 O.2    21  GLU21      -0.2715
     16  CB       -27.3870    2.4110   -9.7410 C.3    21  GLU21       0.0429
     17  CG       -28.0900    1.5690  -10.8350 C.3    21  GLU21       0.1163
     18  CD       -28.4240    0.1070  -10.4010 C.2    21  GLU21       0.3649
     19  OE1      -27.5500   -0.5700   -9.7940 O.co2  21  GLU21      -0.2457
     20  OE2      -29.5690   -0.3680  -10.6720 O.co2  21  GLU21      -0.2457
     21  N        -24.9910    4.4040  -10.2890 N.am   22  VAL22      -0.1963
     22  CA       -24.2020    5.2960  -11.1680 C.3    22  VAL22       0.1727
     23  C        -22.7010    4.9730  -11.2590 C.2    22  VAL22       0.2616
     24  O        -22.1280    5.0770  -12.3450 O.2    22  VAL22      -0.2715
     25  CB       -24.4850    6.8670  -11.0650 C.3    22  VAL22       0.0290
     26  CG1      -25.5580    7.2300  -10.0660 C.3    22  VAL22       0.0023
     27  CG2      -23.2280    7.6770  -10.8870 C.3    22  VAL22       0.0023
     28  N        -22.0480    4.6330  -10.1580 N.am   23  ARG23      -0.1977
     29  CA       -20.6320    4.2620  -10.2710 C.3    23  ARG23       0.1597
     30  C        -20.4400    3.0540  -11.2000 C.2    23  ARG23       0.2287
     31  O        -19.5120    3.0120  -12.0170 O.2    23  ARG23      -0.2864
     32  CB       -19.9780    4.0630   -8.8900 C.3    23  ARG23       0.0334
     33  CG       -18.5080    3.7550   -8.9400 C.3    23  ARG23       0.0492
     34  CD       -18.0730    3.3290   -7.5460 C.3    23  ARG23       0.2205
     35  NE       -17.0440    2.2900   -7.4980 N.pl3  23  ARG23      -0.0865
     36  CZ       -15.7450    2.5240   -7.2840 C.cat  23  ARG23       0.5346
     37  NH1      -15.2920    3.7730   -7.1420 N.pl3  23  ARG23       0.1354
     38  NH2      -14.8900    1.5020   -7.2220 N.pl3  23  ARG23       0.1354
     39  N        -20.9220    4.2370  -14.8490 N.3    26  LEU26      -0.1245
     40  CA       -19.7360    4.9640  -15.2550 C.3    26  LEU26       0.1561
     41  C        -18.5010    4.0640  -15.4770 C.2    26  LEU26       0.2260
     42  O        -17.6960    4.3420  -16.3780 O.2    26  LEU26      -0.2867
     43  CB       -19.4300    6.0770  -14.2530 C.3    26  LEU26       0.0270
     44  CG       -20.4620    7.2080  -14.2950 C.3    26  LEU26       0.0019
     45  CD1      -20.2040    8.1780  -13.1560 C.3    26  LEU26       0.0001
     46  CD2      -20.4590    7.9370  -15.6630 C.3    26  LEU26       0.0001
     47  N        -16.9120   12.7540   -2.3060 N.3   131  LEU131     -0.1245
     48  CA       -17.8020   11.6120   -2.1420 C.3   131  LEU131      0.1561
     49  C        -17.1840   10.5140   -1.2700 C.2   131  LEU131      0.2260
     50  O        -17.8500   10.0220   -0.3380 O.2   131  LEU131     -0.2867
     51  CB       -18.1330   11.0230   -3.5230 C.3   131  LEU131      0.0270
     52  CG       -18.9770    9.7180   -3.6030 C.3   131  LEU131      0.0019
     53  CD1      -20.0190    9.6290   -2.5280 C.3   131  LEU131      0.0001
     54  CD2      -19.5740    9.6210   -5.0410 C.3   131  LEU131      0.0001
     55  N        -18.1360    8.3400    2.2560 N.3   135  GLN135     -0.1245
     56  CA       -18.1270    6.8650    2.2800 C.3   135  GLN135      0.1566
     57  C        -17.2170    6.3290    3.3880 C.2   135  GLN135      0.2260
     58  O        -17.5790    5.3580    4.0810 O.2   135  GLN135     -0.2867
     59  CB       -17.7550    6.2540    0.9060 C.3   135  GLN135      0.0367
     60  CG       -18.7560    6.6530   -0.0950 C.3   135  GLN135      0.0905
     61  CD       -18.3710    6.3620   -1.5340 C.2   135  GLN135      0.2608
     62  OE1      -17.2420    6.6110   -1.9550 O.2   135  GLN135     -0.2717
     63  NE2      -19.3550    5.9050   -2.3160 N.am  135  GLN135     -0.0878
     64  N        -28.9810   13.3610  -12.6080 N.3   346  LYS346     -0.1245
     65  CA       -28.8300   11.9220  -12.4840 C.3   346  LYS346      0.1561
     66  C        -29.7230   11.2540  -13.5500 C.2   346  LYS346      0.2260
     67  O        -29.3040   10.3380  -14.2190 O.2   346  LYS346     -0.2867
     68  CB       -29.2460   11.4520  -11.0810 C.3   346  LYS346      0.0271
     69  CG       -29.1240    9.9670  -10.8550 C.3   346  LYS346      0.0035
     70  CD       -29.1850    9.6800   -9.3240 C.3   346  LYS346      0.0206
     71  CE       -28.9520    8.2370   -9.0450 C.3   346  LYS346      0.1093
     72  NZ       -30.1970    7.4030   -9.2820 N.3   346  LYS346     -0.1314
     73  N        -20.1820   12.9230  -13.8100 N.3   360  VAL360     -0.1231
     74  CA       -20.7600   12.3570  -12.5950 C.3   360  VAL360      0.1678
     75  C        -21.8720   13.2670  -12.0810 C.2   360  VAL360      0.2434
     76  O        -21.6430   14.4410  -11.8460 O.2   360  VAL360     -0.2733
     77  CB       -19.7240   12.2650  -11.4010 C.3   360  VAL360      0.0265
     78  CG1      -20.3260   11.3800  -10.3110 C.3   360  VAL360      0.0020
     79  CG2      -18.3330   11.7660  -11.8770 C.3   360  VAL360      0.0020
     80  N        -23.0860   12.7240  -11.8580 N.am  361  PRO361     -0.2729
     81  CA       -24.1660   13.4920  -11.2540 C.3   361  PRO361      0.1401
     82  C        -23.7370   13.9720   -9.8430 C.2   361  PRO361      0.2269
     83  O        -23.0960   13.2190   -9.1340 O.2   361  PRO361     -0.2865
     84  CB       -25.2900   12.4550  -11.1810 C.3   361  PRO361      0.0296
     85  CG       -25.0460   11.6160  -12.3770 C.3   361  PRO361      0.0237
     86  CD       -23.5660   11.4360  -12.4050 C.3   361  PRO361      0.0939
     87  N        -25.4160   14.6400   -7.1230 N.3   363  GLU363     -0.1231
     88  CA       -26.2630   14.2280   -5.9560 C.3   363  GLU363      0.1699
     89  C        -25.4640   13.5190   -4.8420 C.2   363  GLU363      0.2592
     90  O        -25.4970   13.9480   -3.6880 O.2   363  GLU363     -0.2718
     91  CB       -27.4290   13.3550   -6.4110 C.3   363  GLU363      0.0402
     92  CG       -28.4540   13.0700   -5.2850 C.3   363  GLU363      0.1161
     93  CD       -29.5030   12.0290   -5.7410 C.2   363  GLU363      0.3649
     94  OE1      -30.3600   12.3950   -6.5790 O.co2 363  GLU363     -0.2457
     95  OE2      -29.4290   10.8630   -5.2920 O.co2 363  GLU363     -0.2457
     96  N        -24.6890   12.5070   -5.2180 N.am  364  ALA364     -0.1980
     97  CA       -23.9450   11.7310   -4.1980 C.3   364  ALA364      0.1597
     98  C        -22.8530   12.4920   -3.5190 C.2   364  ALA364      0.2287
     99  O        -22.3650   12.0430   -2.4560 O.2   364  ALA364     -0.2864
    100  CB       -23.3970   10.4380   -4.7520 C.3   364  ALA364      0.0319
    101  N        -27.8590   14.2210    0.0170 N.3   369  ARG369     -0.1245
    102  CA       -28.3390   13.8750   -1.3130 C.3   369  ARG369      0.1563
    103  C        -29.5730   14.7060   -1.7390 C.2   369  ARG369      0.2260
    104  O        -30.4950   14.1600   -2.3360 O.2   369  ARG369     -0.2867
    105  CB       -28.6260   12.3760   -1.3760 C.3   369  ARG369      0.0307
    106  CG       -27.4040   11.4920   -1.1120 C.3   369  ARG369      0.0489
    107  CD       -27.7000   10.0150   -1.3330 C.3   369  ARG369      0.2205
    108  NE       -27.8090    9.7780   -2.7620 N.pl3 369  ARG369     -0.0865
    109  CZ       -26.8600    9.2110   -3.4860 C.cat 369  ARG369      0.5346
    110  NH1      -27.0300    9.0600   -4.7900 N.pl3 369  ARG369      0.1354
    111  NH2      -25.7530    8.7810   -2.9040 N.pl3 369  ARG369      0.1354
@<TRIPOS>BOND
     1    42    41    2
     2    46    44    1
     3    41    40    1
     4    40    39    1
     5    40    43    1
     6    44    43    1
     7    44    45    1
     8    67    66    2
     9    73    74    1
    10    66    65    1
    11    64    65    1
    12    74    75    1
    13    74    77    1
    14    65    68    1
    15    86    85    1
    16    86    80    1
    17    85    84    1
    18    24    23    2
    19    75    80   am
    20    75    76    2
    21    31    30    2
    22    79    77    1
    23    80    81    1
    24    15    14    2
    25    77    78    1
    26    23    22    1
    27    23    28   am
    28    81    84    1
    29    81    82    1
    30    30    29    1
    31    22    25    1
    32    22    21    1
    33    68    69    1
    34    25    27    1
    35    25    26    1
    36    69    70    1
    37    17    18    1
    38    17    16    1
    39    20    18   ar
    40    14    21   am
    41    14    13    1
    42    18    19   ar
    43    29    28    1
    44    29    32    1
    45    82    83    2
    46    16    13    1
    47    13    12    1
    48    70    71    1
    49    72    71    1
    50    33    32    1
    51    33    34    1
    52     9     8    2
    53    12     8   am
    54     8     7    1
    55    34    35    1
    56    35    36    2
    57    36    38    1
    58    36    37    1
    59    87    88    1
    60    11    10    1
    61     6     7    1
    62     6     3   am
    63    94    93   ar
    64     7    10    1
    65    91    88    1
    66    91    92    1
    67     4     3    2
    68    88    89    1
    69    93    95   ar
    70    93    92    1
    71     3     2    1
    72    96    89   am
    73    96    97    1
    74    54    52    1
    75    89    90    2
    76   110   109    1
    77   100    97    1
    78     2     5    1
    79     2     1    1
    80    97    98    1
    81    52    51    1
    82    52    53    1
    83    51    48    1
    84    98    99    2
    85   109   111    1
    86   109   108    2
    87   108   107    1
    88   104   103    2
    89    63    61   am
    90    47    48    1
    91    48    49    1
    92    62    61    2
    93   103   102    1
    94    61    60    1
    95   105   102    1
    96   105   106    1
    97   107   106    1
    98   102   101    1
    99    49    50    2
   100    60    59    1
   101    59    56    1
   102    55    56    1
   103    56    57    1
   104    57    58    2
