@<TRIPOS>MOLECULE
tmp/3avpA01.pdb
 98 93 0 0 0
SMALL
GASTEIGER

@<TRIPOS>ATOM
      1  N         37.9790   24.8370   68.0050 N.3    34  GLY34      -0.1210
      2  CA        39.1450   25.6980   68.0730 C.3    34  GLY34       0.1956
      3  C         39.3730   26.3500   69.4190 C.2    34  GLY34       0.2611
      4  O         38.4920   26.3980   70.2780 O.2    34  GLY34      -0.2717
      5  N         40.5840   26.8590   69.5900 N.am   35  LEU35      -0.1979
      6  CA        40.9940   27.5130   70.8240 C.3    35  LEU35       0.1596
      7  C         40.0100   28.6120   71.1880 C.2    35  LEU35       0.2287
      8  O         39.6540   29.4400   70.3500 O.2    35  LEU35      -0.2864
      9  CB        42.3990   28.0930   70.6350 C.3    35  LEU35       0.0297
     10  CG        43.2340   28.4840   71.8480 C.3    35  LEU35       0.0022
     11  CD1       43.5710   27.2480   72.6690 C.3    35  LEU35       0.0001
     12  CD2       44.5090   29.1700   71.3600 C.3    35  LEU35       0.0001
     13  N         36.8370   28.3680   71.8420 N.3    37  GLU37      -0.1245
     14  CA        35.4700   27.8920   71.6680 C.3    37  GLU37       0.1567
     15  C         34.9220   27.1070   72.8620 C.2    37  GLU37       0.2260
     16  O         35.6450   26.3580   73.5190 O.2    37  GLU37      -0.2867
     17  CB        35.3950   27.0610   70.3930 C.3    37  GLU37       0.0388
     18  CG        35.4770   27.9080   69.1340 C.3    37  GLU37       0.1160
     19  CD        34.1620   28.5930   68.8280 C.2    37  GLU37       0.3649
     20  OE1       33.9770   29.7850   69.1800 O.co2  37  GLU37      -0.2457
     21  OE2       33.2920   27.9160   68.2420 O.co2  37  GLU37      -0.2457
     22  N         35.8180   36.7580   61.6120 N.3    94  VAL94      -0.1231
     23  CA        37.0110   36.0810   62.0680 C.3    94  VAL94       0.1692
     24  C         36.7480   35.8830   63.5550 C.2    94  VAL94       0.2592
     25  O         36.1220   36.7360   64.1820 O.2    94  VAL94      -0.2718
     26  CB        38.2530   37.0040   61.8940 C.3    94  VAL94       0.0266
     27  CG1       39.3350   36.6440   62.8970 C.3    94  VAL94       0.0020
     28  CG2       38.7970   36.8770   60.4860 C.3    94  VAL94       0.0020
     29  N         37.2020   34.7660   64.1140 N.am   95  ALA95      -0.1966
     30  CA        37.0460   34.4930   65.5420 C.3    95  ALA95       0.1728
     31  C         35.6340   34.3240   66.1070 C.2    95  ALA95       0.2616
     32  O         35.4520   34.3520   67.3220 O.2    95  ALA95      -0.2715
     33  CB        37.7710   35.5680   66.3440 C.3    95  ALA95       0.0334
     34  N         34.6320   34.1320   65.2630 N.am   96  VAL96      -0.1963
     35  CA        33.2870   33.9810   65.7950 C.3    96  VAL96       0.1727
     36  C         32.9410   32.5150   66.0570 C.2    96  VAL96       0.2617
     37  O         31.9070   32.2160   66.6390 O.2    96  VAL96      -0.2715
     38  CB        32.2320   34.6020   64.8400 C.3    96  VAL96       0.0290
     39  CG1       31.8440   33.6090   63.7570 C.3    96  VAL96       0.0023
     40  CG2       31.0190   35.0300   65.6260 C.3    96  VAL96       0.0023
     41  N         33.8150   31.6130   65.6260 N.am   97  GLY97      -0.1940
     42  CA        33.5900   30.1910   65.8210 C.3    97  GLY97       0.2014
     43  C         33.0570   29.4750   64.5880 C.2    97  GLY97       0.2639
     44  O         32.7970   28.2730   64.6280 O.2    97  GLY97      -0.2714
     45  N         32.9110   30.1960   63.4810 N.am   98  LYS98      -0.1963
     46  CA        32.3720   29.5970   62.2680 C.3    98  LYS98       0.1728
     47  C         33.1330   28.4030   61.7120 C.2    98  LYS98       0.2617
     48  O         32.5200   27.5320   61.1020 O.2    98  LYS98      -0.2715
     49  CB        32.2320   30.6400   61.1580 C.3    98  LYS98       0.0311
     50  CG        33.5450   31.2700   60.7770 C.3    98  LYS98       0.0038
     51  CD        33.4250   32.1310   59.5500 C.3    98  LYS98       0.0206
     52  CE        34.7020   32.9160   59.3560 C.3    98  LYS98       0.1093
     53  NZ        35.8990   32.0660   59.5780 N.3    98  LYS98      -0.1314
     54  N         34.4510   28.3400   61.8820 N.am   99  SER99      -0.1936
     55  CA        35.1730   27.1890   61.3350 C.3    99  SER99       0.2055
     56  C         34.8700   25.9370   62.1460 C.2    99  SER99       0.2643
     57  O         34.8790   24.8290   61.6160 O.2    99  SER99      -0.2714
     58  CB        36.6810   27.4310   61.3050 C.3    99  SER99       0.2130
     59  OG        36.9890   28.6700   60.6980 O.3    99  SER99      -0.2179
     60  N         34.6130   26.1100   63.4360 N.am  100  THR100     -0.1950
     61  CA        34.2740   24.9760   64.2800 C.3   100  THR100      0.1897
     62  C         32.8780   24.5420   63.8450 C.2   100  THR100      0.2313
     63  O         32.6160   23.3560   63.6470 O.2   100  THR100     -0.2863
     64  CB        34.2270   25.3580   65.7810 C.3   100  THR100      0.1794
     65  OG1       35.5340   25.7330   66.2250 O.3   100  THR100     -0.2208
     66  CG2       33.7320   24.1840   66.6180 C.3   100  THR100      0.0378
     67  N         33.0940   22.5400   60.8380 N.3   103  ARG103     -0.1245
     68  CA        33.6830   21.2290   61.0680 C.3   103  ARG103      0.1563
     69  C         32.7120   20.3040   61.7900 C.2   103  ARG103      0.2260
     70  O         32.5780   19.1260   61.4500 O.2   103  ARG103     -0.2867
     71  CB        34.9800   21.3620   61.8680 C.3   103  ARG103      0.0307
     72  CG        36.1590   21.8620   61.0350 C.3   103  ARG103      0.0489
     73  CD        37.4530   21.7670   61.8180 C.3   103  ARG103      0.2205
     74  NE        37.3760   22.5320   63.0550 N.pl3 103  ARG103     -0.0865
     75  CZ        37.8670   23.7570   63.2130 C.cat 103  ARG103      0.5346
     76  NH1       38.4890   24.3630   62.2060 N.pl3 103  ARG103      0.1354
     77  NH2       37.7220   24.3870   64.3760 N.pl3 103  ARG103      0.1354
     78  N         48.5990   28.3180   57.6730 N.3   174  HIS174     -0.1241
     79  CA        48.4510   29.3470   58.6990 C.3   174  HIS174      0.1621
     80  C         49.7780   29.5310   59.4050 C.2   174  HIS174      0.2264
     81  O         50.0680   30.5960   59.9510 O.2   174  HIS174     -0.2867
     82  CB        47.3650   28.9840   59.7110 C.3   174  HIS174      0.0745
     83  CG        45.9920   29.4000   59.2890 C.ar  174  HIS174      0.0817
     84  ND1       45.2260   28.6640   58.4100 N.ar  174  HIS174     -0.2268
     85  CD2       45.2610   30.4980   59.5960 C.ar  174  HIS174      0.1154
     86  CE1       44.0820   29.2880   58.1950 C.ar  174  HIS174      0.1986
     87  NE2       44.0780   30.4040   58.9020 N.ar  174  HIS174     -0.2212
     88  N         41.9550   35.2410   72.1480 N.3   233  ARG233     -0.1245
     89  CA        42.5930   34.1580   71.4240 C.3   233  ARG233      0.1563
     90  C         43.9630   34.5430   70.8780 C.2   233  ARG233      0.2260
     91  O         44.8390   33.6930   70.7130 O.2   233  ARG233     -0.2867
     92  CB        41.6920   33.7100   70.2900 C.3   233  ARG233      0.0307
     93  CG        42.1590   32.4600   69.6260 C.3   233  ARG233      0.0489
     94  CD        41.0550   31.9090   68.7740 C.3   233  ARG233      0.2205
     95  NE        40.7560   32.8080   67.6720 N.pl3 233  ARG233     -0.0865
     96  CZ        41.1270   32.5850   66.4200 C.cat 233  ARG233      0.5346
     97  NH1       41.8010   31.4800   66.1240 N.pl3 233  ARG233      0.1354
     98  NH2       40.8400   33.4710   65.4730 N.pl3 233  ARG233      0.1354
@<TRIPOS>BOND
     1    78    79    1
     2    86    84   ar
     3    86    87   ar
     4    84    83   ar
     5    79    80    1
     6    79    82    1
     7    87    85   ar
     8    83    85   ar
     9    83    82    1
    10    52    51    1
    11    52    53    1
    12    80    81    2
    13    51    50    1
    14    28    26    1
    15    59    58    1
    16    50    49    1
    17    67    68    1
    18    72    73    1
    19    72    71    1
    20    68    69    1
    21    68    71    1
    22    48    47    2
    23    49    46    1
    24    58    55    1
    25    55    54    1
    26    55    56    1
    27    70    69    2
    28    22    23    1
    29    57    56    2
    30    47    54   am
    31    47    46    1
    32    73    74    1
    33    26    23    1
    34    26    27    1
    35    23    24    1
    36    56    60   am
    37    76    75    1
    38    46    45    1
    39    74    75    2
    40    75    77    1
    41    60    61    1
    42    45    43   am
    43    24    29   am
    44    24    25    2
    45    63    62    2
    46    39    38    1
    47    62    61    1
    48    29    30    1
    49    61    64    1
    50    43    44    2
    51    43    42    1
    52    38    40    1
    53    38    35    1
    54    34    35    1
    55    34    31   am
    56    98    96    1
    57    30    31    1
    58    30    33    1
    59    41    42    1
    60    41    36   am
    61    64    65    1
    62    64    66    1
    63    35    36    1
    64    36    37    2
    65    31    32    2
    66    97    96    1
    67    96    95    2
    68    95    94    1
    69     1     2    1
    70     2     3    1
    71    21    19   ar
    72    94    93    1
    73    19    18    1
    74    19    20   ar
    75    18    17    1
    76     3     5   am
    77     3     4    2
    78     5     6    1
    79    93    92    1
    80    92    89    1
    81     8     7    2
    82    17    14    1
    83     9     6    1
    84     9    10    1
    85    91    90    2
    86     6     7    1
    87    90    89    1
    88    12    10    1
    89    89    88    1
    90    14    13    1
    91    14    15    1
    92    10    11    1
    93    15    16    2
