@<TRIPOS>MOLECULE
tmp/3avpA00.pdb
 148 140 0 0 0
SMALL
GASTEIGER

@<TRIPOS>ATOM
      1  N         35.8180   36.7580   61.6120 N.3    94  VAL94      -0.1245
      2  CA        37.0110   36.0810   62.0680 C.3    94  VAL94       0.1561
      3  C         36.7480   35.8830   63.5550 C.2    94  VAL94       0.2260
      4  O         36.1220   36.7360   64.1820 O.2    94  VAL94      -0.2867
      5  CB        38.2530   37.0040   61.8940 C.3    94  VAL94       0.0252
      6  CG1       39.3350   36.6440   62.8970 C.3    94  VAL94       0.0019
      7  CG2       38.7970   36.8770   60.4860 C.3    94  VAL94       0.0019
      8  N         40.2370   30.0390   52.5640 N.3   124  ASP124     -0.1239
      9  CA        41.6320   30.3880   52.7900 C.3   124  ASP124      0.1674
     10  C         42.4690   29.9690   51.6110 C.2   124  ASP124      0.2266
     11  O         43.2730   30.7400   51.1040 O.2   124  ASP124     -0.2867
     12  CB        42.1630   29.6920   54.0410 C.3   124  ASP124      0.1410
     13  CG        41.8010   30.4260   55.3050 C.2   124  ASP124      0.3668
     14  OD1       42.0590   29.8860   56.3950 O.co2 124  ASP124     -0.2456
     15  OD2       41.2630   31.5470   55.2080 O.co2 124  ASP124     -0.2456
     16  N         43.0240   32.4940   48.7960 N.3   127  LEU127     -0.1245
     17  CA        43.5930   33.8200   48.9850 C.3   127  LEU127      0.1561
     18  C         44.7040   33.9460   47.9510 C.2   127  LEU127      0.2260
     19  O         45.2750   32.9430   47.5240 O.2   127  LEU127     -0.2867
     20  CB        44.2070   33.9630   50.3760 C.3   127  LEU127      0.0270
     21  CG        43.3120   34.3080   51.5590 C.3   127  LEU127      0.0019
     22  CD1       44.0850   34.0720   52.8480 C.3   127  LEU127      0.0001
     23  CD2       42.8510   35.7620   51.4530 C.3   127  LEU127      0.0001
     24  N         43.9170   41.4760   53.8420 N.3   142  LYS142     -0.1231
     25  CA        43.7780   40.0320   53.7920 C.3   142  LYS142      0.1693
     26  C         42.4890   39.6390   54.5120 C.2   142  LYS142      0.2592
     27  O         42.3630   39.7960   55.7220 O.2   142  LYS142     -0.2718
     28  CB        44.9830   39.3960   54.4730 C.3   142  LYS142      0.0285
     29  CG        45.3770   38.0450   53.9160 C.3   142  LYS142      0.0035
     30  CD        46.7560   37.6770   54.4360 C.3   142  LYS142      0.0206
     31  CE        47.2900   36.4150   53.8180 C.3   142  LYS142      0.1093
     32  NZ        48.7190   36.2350   54.1830 N.3   142  LYS142     -0.1314
     33  N         41.5340   39.1250   53.7570 N.am  143  GLY143     -0.1957
     34  CA        40.2620   38.7500   54.3390 C.3   143  GLY143      0.1869
     35  C         39.1800   39.5480   53.6410 C.2   143  GLY143      0.2309
     36  O         38.0110   39.1590   53.6320 O.2   143  GLY143     -0.2863
     37  N         40.8840   37.7230   47.6260 N.3   148  TYR148     -0.1241
     38  CA        40.6020   36.3600   47.1890 C.3   148  TYR148      0.1605
     39  C         40.4970   36.2390   45.6730 C.2   148  TYR148      0.2264
     40  O         40.0520   37.1660   45.0010 O.2   148  TYR148     -0.2867
     41  CB        39.2890   35.8460   47.8010 C.3   148  TYR148      0.0534
     42  CG        39.2990   35.6600   49.3080 C.ar  148  TYR148     -0.0201
     43  CD1       38.8900   36.6820   50.1610 C.ar  148  TYR148     -0.0009
     44  CD2       39.7160   34.4580   49.8760 C.ar  148  TYR148     -0.0009
     45  CE1       38.8930   36.5110   51.5420 C.ar  148  TYR148      0.0417
     46  CE2       39.7280   34.2730   51.2560 C.ar  148  TYR148      0.0417
     47  CZ        39.3160   35.3050   52.0860 C.ar  148  TYR148      0.1957
     48  OH        39.3570   35.1390   53.4500 O.3   148  TYR148     -0.2866
     49  N         46.0920   26.7610   51.9600 N.3   172  TYR172     -0.1241
     50  CA        46.7150   27.8500   52.6930 C.3   172  TYR172      0.1605
     51  C         47.3840   27.3870   53.9890 C.2   172  TYR172      0.2264
     52  O         46.8110   26.6150   54.7500 O.2   172  TYR172     -0.2867
     53  CB        45.6490   28.8980   53.0140 C.3   172  TYR172      0.0534
     54  CG        46.1740   30.1450   53.6870 C.ar  172  TYR172     -0.0201
     55  CD1       46.9070   31.0900   52.9680 C.ar  172  TYR172     -0.0009
     56  CD2       45.8940   30.4090   55.0280 C.ar  172  TYR172     -0.0009
     57  CE1       47.3380   32.2670   53.5620 C.ar  172  TYR172      0.0417
     58  CE2       46.3230   31.5820   55.6340 C.ar  172  TYR172      0.0417
     59  CZ        47.0420   32.5060   54.8950 C.ar  172  TYR172      0.1957
     60  OH        47.4700   33.6720   55.4780 O.3   172  TYR172     -0.2866
     61  N         48.5990   28.3180   57.6730 N.3   174  HIS174     -0.1241
     62  CA        48.4510   29.3470   58.6990 C.3   174  HIS174      0.1621
     63  C         49.7780   29.5310   59.4050 C.2   174  HIS174      0.2264
     64  O         50.0680   30.5960   59.9510 O.2   174  HIS174     -0.2867
     65  CB        47.3650   28.9840   59.7110 C.3   174  HIS174      0.0745
     66  CG        45.9920   29.4000   59.2890 C.ar  174  HIS174      0.0817
     67  ND1       45.2260   28.6640   58.4100 N.ar  174  HIS174     -0.2268
     68  CD2       45.2610   30.4980   59.5960 C.ar  174  HIS174      0.1154
     69  CE1       44.0820   29.2880   58.1950 C.ar  174  HIS174      0.1986
     70  NE2       44.0780   30.4040   58.9020 N.ar  174  HIS174     -0.2212
     71  N         51.4910   31.7130   56.9270 N.3   177  TYR177     -0.1241
     72  CA        50.7350   32.8900   56.5360 C.3   177  TYR177      0.1605
     73  C         50.6430   33.0610   55.0210 C.2   177  TYR177      0.2264
     74  O         50.3520   34.1540   54.5330 O.2   177  TYR177     -0.2867
     75  CB        51.4120   34.1190   57.1540 C.3   177  TYR177      0.0534
     76  CG        50.5840   35.3800   57.1620 C.ar  177  TYR177     -0.0201
     77  CD1       49.3150   35.3960   57.7390 C.ar  177  TYR177     -0.0009
     78  CD2       51.0850   36.5720   56.6340 C.ar  177  TYR177     -0.0009
     79  CE1       48.5650   36.5640   57.7960 C.ar  177  TYR177      0.0417
     80  CE2       50.3440   37.7490   56.6860 C.ar  177  TYR177      0.0417
     81  CZ        49.0860   37.7340   57.2700 C.ar  177  TYR177      0.1957
     82  OH        48.3460   38.8930   57.3450 O.3   177  TYR177     -0.2866
     83  N         34.8150   34.0050   55.2280 N.3   198  LEU198     -0.1245
     84  CA        34.3040   35.3080   55.6410 C.3   198  LEU198      0.1561
     85  C         33.2490   35.9180   54.7320 C.2   198  LEU198      0.2260
     86  O         32.2100   36.3590   55.2020 O.2   198  LEU198     -0.2867
     87  CB        35.4560   36.3180   55.7430 C.3   198  LEU198      0.0270
     88  CG        36.5910   35.9500   56.6850 C.3   198  LEU198      0.0019
     89  CD1       37.8020   36.7920   56.3710 C.3   198  LEU198      0.0001
     90  CD2       36.1570   36.1310   58.1130 C.3   198  LEU198      0.0001
     91  N         38.5150   37.6730   69.7940 N.3   230  TYR230     -0.1241
     92  CA        39.6820   37.7760   68.9320 C.3   230  TYR230      0.1605
     93  C         40.9300   38.1030   69.7570 C.2   230  TYR230      0.2264
     94  O         41.9510   37.4280   69.6510 O.2   230  TYR230     -0.2867
     95  CB        39.4680   38.8690   67.8930 C.3   230  TYR230      0.0534
     96  CG        40.6950   39.1270   67.0710 C.ar  230  TYR230     -0.0201
     97  CD1       41.0470   38.2770   66.0260 C.ar  230  TYR230     -0.0009
     98  CD2       41.5450   40.1880   67.3790 C.ar  230  TYR230     -0.0009
     99  CE1       42.2130   38.4740   65.3100 C.ar  230  TYR230      0.0417
    100  CE2       42.7180   40.3960   66.6700 C.ar  230  TYR230      0.0417
    101  CZ        43.0460   39.5360   65.6390 C.ar  230  TYR230      0.1957
    102  OH        44.2180   39.7250   64.9390 O.3   230  TYR230     -0.2866
    103  N         41.9550   35.2410   72.1480 N.3   233  ARG233     -0.1245
    104  CA        42.5930   34.1580   71.4240 C.3   233  ARG233      0.1563
    105  C         43.9630   34.5430   70.8780 C.2   233  ARG233      0.2260
    106  O         44.8390   33.6930   70.7130 O.2   233  ARG233     -0.2867
    107  CB        41.6920   33.7100   70.2900 C.3   233  ARG233      0.0307
    108  CG        42.1590   32.4600   69.6260 C.3   233  ARG233      0.0489
    109  CD        41.0550   31.9090   68.7740 C.3   233  ARG233      0.2205
    110  NE        40.7560   32.8080   67.6720 N.pl3 233  ARG233     -0.0865
    111  CZ        41.1270   32.5850   66.4200 C.cat 233  ARG233      0.5346
    112  NH1       41.8010   31.4800   66.1240 N.pl3 233  ARG233      0.1354
    113  NH2       40.8400   33.4710   65.4730 N.pl3 233  ARG233      0.1354
    114  N         54.3460   34.5390   62.7430 N.3   249  PHE249     -0.1241
    115  CA        54.0750   35.4950   63.8070 C.3   249  PHE249      0.1605
    116  C         54.7710   35.1340   65.1070 C.2   249  PHE249      0.2264
    117  O         54.2980   35.4650   66.1920 O.2   249  PHE249     -0.2867
    118  CB        52.5720   35.6150   64.0460 C.3   249  PHE249      0.0534
    119  CG        51.8170   36.1740   62.8750 C.ar  249  PHE249     -0.0203
    120  CD1       51.0200   35.3520   62.0850 C.ar  249  PHE249     -0.0042
    121  CD2       51.9080   37.5260   62.5590 C.ar  249  PHE249     -0.0042
    122  CE1       50.3250   35.8690   60.9980 C.ar  249  PHE249     -0.0003
    123  CE2       51.2200   38.0500   61.4800 C.ar  249  PHE249     -0.0003
    124  CZ        50.4250   37.2200   60.6950 C.ar  249  PHE249     -0.0000
    125  N         44.9670   45.3240   65.0650 N.3   267  ILE267     -0.1245
    126  CA        44.6450   44.5310   63.8870 C.3   267  ILE267      0.1561
    127  C         43.1300   44.4720   63.7610 C.2   267  ILE267      0.2260
    128  O         42.5850   44.5720   62.6630 O.2   267  ILE267     -0.2867
    129  CB        45.2120   43.1070   64.0060 C.3   267  ILE267      0.0252
    130  CG1       46.7300   43.1750   64.1640 C.3   267  ILE267      0.0019
    131  CG2       44.8940   42.3140   62.7540 C.3   267  ILE267      0.0019
    132  CD1       47.3540   41.8820   64.6170 C.3   267  ILE267      0.0001
    133  N         41.7960   45.9980   60.3130 N.3   271  ILE271     -0.1231
    134  CA        41.4750   44.9920   59.3120 C.3   271  ILE271      0.1692
    135  C         40.1480   44.2650   59.5500 C.2   271  ILE271      0.2592
    136  O         39.1920   44.4200   58.7840 O.2   271  ILE271     -0.2718
    137  CB        42.5970   43.9270   59.2290 C.3   271  ILE271      0.0266
    138  CG1       43.9420   44.6130   58.9700 C.3   271  ILE271      0.0019
    139  CG2       42.2920   42.9170   58.1210 C.3   271  ILE271      0.0020
    140  CD1       45.1380   43.6870   59.1030 C.3   271  ILE271      0.0001
    141  N         40.0970   43.4960   60.6230 N.am  272  ASN272     -0.1974
    142  CA        38.9310   42.6850   60.9250 C.3   272  ASN272      0.1688
    143  C         37.6140   43.3790   61.2320 C.2   272  ASN272      0.2292
    144  O         36.5610   42.8990   60.8150 O.2   272  ASN272     -0.2864
    145  CB        39.3040   41.7020   62.0320 C.3   272  ASN272      0.1181
    146  CG        40.3900   40.7440   61.6010 C.2   272  ASN272      0.2629
    147  OD1       41.2360   40.3410   62.3930 O.2   272  ASN272     -0.2716
    148  ND2       40.3710   40.3750   60.3280 N.am  272  ASN272     -0.0877
@<TRIPOS>BOND
     1    40    39    2
     2    39    38    1
     3    38    37    1
     4    38    41    1
     5    19    18    2
     6    41    42    1
     7    18    17    1
     8    16    17    1
     9    17    20    1
    10    42    44   ar
    11    42    43   ar
    12    44    46   ar
    13    43    45   ar
    14    20    21    1
    15    11    10    2
    16    46    47   ar
    17    23    21    1
    18    45    47   ar
    19    21    22    1
    20    10     9    1
    21    49    50    1
    22    47    48    1
    23     8     9    1
    24    50    53    1
    25    50    51    1
    26     9    12    1
    27    55    57   ar
    28    55    54   ar
    29    53    54    1
    30    57    59   ar
    31    36    35    2
    32    35    34    1
    33    54    56   ar
    34    33    34    1
    35    33    26   am
    36    25    24    1
    37    25    28    1
    38    25    26    1
    39    31    32    1
    40    31    30    1
    41    29    30    1
    42    29    28    1
    43    51    52    2
    44    12    13    1
    45    26    27    2
    46    74    73    2
    47    85    86    2
    48    85    84    1
    49    59    60    1
    50    59    58   ar
    51    73    72    1
    52    56    58   ar
    53    15    13   ar
    54    83    84    1
    55    13    14   ar
    56    84    87    1
    57    87    88    1
    58    89    88    1
    59    72    71    1
    60    72    75    1
    61    78    80   ar
    62    78    76   ar
    63    88    90    1
    64    80    81   ar
    65    75    76    1
    66    76    77   ar
    67    81    82    1
    68    81    79   ar
    69    61    62    1
    70    77    79   ar
    71   139   137    1
    72    69    67   ar
    73    69    70   ar
    74    67    66   ar
    75    62    63    1
    76    62    65    1
    77   136   135    2
    78    70    68   ar
    79   138   140    1
    80   138   137    1
    81   137   134    1
    82    66    68   ar
    83    66    65    1
    84   134   135    1
    85   134   133    1
    86    63    64    2
    87   135   141   am
    88   148   146   am
    89     7     5    1
    90   141   142    1
    91   124   122   ar
    92   124   123   ar
    93   144   143    2
    94   142   143    1
    95   142   145    1
    96   122   120   ar
    97   123   121   ar
    98   146   145    1
    99   146   147    2
   100     1     2    1
   101     5     2    1
   102     5     6    1
   103     2     3    1
   104   120   119   ar
   105   121   119   ar
   106   128   127    2
   107   114   115    1
   108   131   129    1
   109   119   118    1
   110     3     4    2
   111   127   126    1
   112   115   118    1
   113   115   116    1
   114   126   129    1
   115   126   125    1
   116   129   130    1
   117   130   132    1
   118   102   101    1
   119   116   117    2
   120    99   101   ar
   121    99    97   ar
   122   113   111    1
   123   101   100   ar
   124    97    96   ar
   125   112   111    1
   126   111   110    2
   127   100    98   ar
   128    96    98   ar
   129    96    95    1
   130   110   109    1
   131    95    92    1
   132   109   108    1
   133    92    93    1
   134    92    91    1
   135   108   107    1
   136    94    93    2
   137   107   104    1
   138   106   105    2
   139   105   104    1
   140   104   103    1
