@<TRIPOS>MOLECULE
tmp/3avqA00.pdb
 195 187 0 0 0
SMALL
GASTEIGER

@<TRIPOS>ATOM
      1  N         67.9860   36.8850   -1.1720 N.3    94  VAL94      -0.1231
      2  CA        66.8000   36.1790   -1.6080 C.3    94  VAL94       0.1692
      3  C         67.0490   35.9700   -3.0860 C.2    94  VAL94       0.2591
      4  O         67.6540   36.8220   -3.7160 O.2    94  VAL94      -0.2718
      5  CB        65.5630   37.0890   -1.4330 C.3    94  VAL94       0.0266
      6  CG1       64.3970   36.5870   -2.2480 C.3    94  VAL94       0.0020
      7  CG2       65.1940   37.1680    0.0230 C.3    94  VAL94       0.0020
      8  N         66.6140   34.8460   -3.6390 N.am   95  ALA95      -0.1980
      9  CA        66.7940   34.5880   -5.0720 C.3    95  ALA95       0.1597
     10  C         68.2240   34.3170   -5.5580 C.2    95  ALA95       0.2287
     11  O         68.4430   34.0850   -6.7490 O.2    95  ALA95      -0.2864
     12  CB        66.1950   35.7430   -5.8890 C.3    95  ALA95       0.0319
     13  N         63.6650   30.1440    8.2760 N.3   124  ASP124     -0.1239
     14  CA        62.2680   30.5060    8.0020 C.3   124  ASP124      0.1674
     15  C         61.3140   30.2740    9.1750 C.2   124  ASP124      0.2266
     16  O         60.5880   31.1790    9.5820 O.2   124  ASP124     -0.2867
     17  CB        61.7590   29.7310    6.7850 C.3   124  ASP124      0.1410
     18  CG        62.2620   30.3030    5.4830 C.2   124  ASP124      0.3668
     19  OD1       63.1870   31.1420    5.5210 O.co2 124  ASP124     -0.2456
     20  OD2       61.7380   29.9120    4.4190 O.co2 124  ASP124     -0.2456
     21  N         60.8390   32.7930   12.0280 N.3   127  LEU127     -0.1245
     22  CA        60.2390   34.0960   11.8230 C.3   127  LEU127      0.1561
     23  C         59.0550   34.1810   12.7810 C.2   127  LEU127      0.2260
     24  O         58.3430   33.1970   12.9870 O.2   127  LEU127     -0.2867
     25  CB        59.6850   34.2130   10.4090 C.3   127  LEU127      0.0270
     26  CG        60.5490   34.4640    9.1860 C.3   127  LEU127      0.0019
     27  CD1       59.7100   34.2560    7.9150 C.3   127  LEU127      0.0001
     28  CD2       61.0720   35.8820    9.2510 C.3   127  LEU127      0.0001
     29  N         59.8260   41.3040    6.6110 N.3   142  LYS142     -0.1231
     30  CA        60.1980   39.9030    6.7240 C.3   142  LYS142      0.1693
     31  C         61.5400   39.6570    6.0550 C.2   142  LYS142      0.2592
     32  O         61.7320   39.9660    4.8780 O.2   142  LYS142     -0.2718
     33  CB        59.1330   39.0090    6.0870 C.3   142  LYS142      0.0285
     34  CG        58.1090   38.5050    7.0700 C.3   142  LYS142      0.0035
     35  CD        57.5340   37.2050    6.5980 C.3   142  LYS142      0.0206
     36  CE        56.1600   37.4070    6.0580 C.3   142  LYS142      0.1093
     37  NZ        55.1850   36.7190    6.9180 N.3   142  LYS142     -0.1314
     38  N         62.4630   39.0750    6.8040 N.am  143  GLY143     -0.1957
     39  CA        63.7810   38.8210    6.2610 C.3   143  GLY143      0.1869
     40  C         64.7670   39.6390    7.0640 C.2   143  GLY143      0.2309
     41  O         65.9540   39.3070    7.1440 O.2   143  GLY143     -0.2863
     42  N         62.8490   37.8860   13.0920 N.3   148  TYR148     -0.1241
     43  CA        63.1560   36.5300   13.4940 C.3   148  TYR148      0.1605
     44  C         63.2800   36.4680   15.0110 C.2   148  TYR148      0.2264
     45  O         63.6200   37.4510   15.6700 O.2   148  TYR148     -0.2867
     46  CB        64.4650   36.0530   12.8660 C.3   148  TYR148      0.0534
     47  CG        64.4220   35.8220   11.3660 C.ar  148  TYR148     -0.0201
     48  CD1       64.9080   36.7760   10.4700 C.ar  148  TYR148     -0.0009
     49  CD2       63.9450   34.6230   10.8450 C.ar  148  TYR148     -0.0009
     50  CE1       64.9280   36.5300    9.0950 C.ar  148  TYR148      0.0417
     51  CE2       63.9590   34.3660    9.4800 C.ar  148  TYR148      0.0417
     52  CZ        64.4540   35.3160    8.6030 C.ar  148  TYR148      0.1957
     53  OH        64.4940   35.0320    7.2430 O.3   148  TYR148     -0.2866
     54  N         57.7070   26.9620    8.5820 N.3   172  TYR172     -0.1241
     55  CA        57.0880   28.0880    7.9040 C.3   172  TYR172      0.1605
     56  C         56.4180   27.6490    6.6000 C.2   172  TYR172      0.2264
     57  O         56.9430   26.8060    5.8740 O.2   172  TYR172     -0.2867
     58  CB        58.1450   29.1540    7.6050 C.3   172  TYR172      0.0534
     59  CG        57.6130   30.4160    6.9570 C.ar  172  TYR172     -0.0201
     60  CD1       57.1370   31.4680    7.7240 C.ar  172  TYR172     -0.0009
     61  CD2       57.6150   30.5670    5.5730 C.ar  172  TYR172     -0.0009
     62  CE1       56.6850   32.6370    7.1290 C.ar  172  TYR172      0.0417
     63  CE2       57.1660   31.7310    4.9780 C.ar  172  TYR172      0.0417
     64  CZ        56.7040   32.7610    5.7600 C.ar  172  TYR172      0.1957
     65  OH        56.2660   33.9230    5.1730 O.3   172  TYR172     -0.2866
     66  N         55.3560   28.7670    2.9430 N.3   174  HIS174     -0.1241
     67  CA        55.5560   29.8280    1.9710 C.3   174  HIS174      0.1621
     68  C         54.2430   30.0450    1.2330 C.2   174  HIS174      0.2264
     69  O         53.9400   31.1570    0.8010 O.2   174  HIS174     -0.2867
     70  CB        56.6920   29.4570    1.0120 C.3   174  HIS174      0.0745
     71  CG        58.0070   30.0750    1.3800 C.ar  174  HIS174      0.0817
     72  ND1       58.3990   31.3160    0.9250 N.ar  174  HIS174     -0.2268
     73  CD2       59.0020   29.6450    2.1920 C.ar  174  HIS174      0.1154
     74  CE1       59.5720   31.6270    1.4450 C.ar  174  HIS174      0.1986
     75  NE2       59.9610   30.6290    2.2190 N.ar  174  HIS174     -0.2212
     76  N         52.2320   31.9370    3.6060 N.3   177  TYR177     -0.1241
     77  CA        52.9650   33.1110    4.0490 C.3   177  TYR177      0.1605
     78  C         52.9680   33.2900    5.5720 C.2   177  TYR177      0.2264
     79  O         52.9800   34.4220    6.0640 O.2   177  TYR177     -0.2867
     80  CB        52.3440   34.3480    3.3950 C.3   177  TYR177      0.0534
     81  CG        53.2080   35.5890    3.3960 C.ar  177  TYR177     -0.0201
     82  CD1       54.4490   35.5950    2.7620 C.ar  177  TYR177     -0.0009
     83  CD2       52.7560   36.7780    3.9750 C.ar  177  TYR177     -0.0009
     84  CE1       55.2150   36.7510    2.6960 C.ar  177  TYR177      0.0417
     85  CE2       53.5170   37.9420    3.9140 C.ar  177  TYR177      0.0417
     86  CZ        54.7440   37.9200    3.2690 C.ar  177  TYR177      0.1957
     87  OH        55.5020   39.0640    3.1700 O.3   177  TYR177     -0.2866
     88  N         69.3140   34.2600    5.7740 N.3   198  LEU198     -0.1245
     89  CA        69.8370   35.5060    5.2290 C.3   198  LEU198      0.1561
     90  C         70.9110   36.1320    6.0950 C.2   198  LEU198      0.2260
     91  O         72.0030   36.4200    5.6140 O.2   198  LEU198     -0.2867
     92  CB        68.7050   36.5140    5.0270 C.3   198  LEU198      0.0270
     93  CG        67.5420   36.0330    4.1480 C.3   198  LEU198      0.0019
     94  CD1       66.3350   36.9140    4.3700 C.3   198  LEU198      0.0001
     95  CD2       67.9400   36.0410    2.6930 C.3   198  LEU198      0.0001
     96  N         65.3430   37.7310   -9.1130 N.3   230  TYR230     -0.1241
     97  CA        64.1990   37.8720   -8.2260 C.3   230  TYR230      0.1605
     98  C         62.9370   38.1560   -9.0230 C.2   230  TYR230      0.2264
     99  O         61.9470   37.4440   -8.8980 O.2   230  TYR230     -0.2867
    100  CB        64.4300   39.0110   -7.2330 C.3   230  TYR230      0.0534
    101  CG        63.2330   39.2660   -6.3520 C.ar  230  TYR230     -0.0201
    102  CD1       63.0240   38.5280   -5.1910 C.ar  230  TYR230     -0.0009
    103  CD2       62.2720   40.1960   -6.7160 C.ar  230  TYR230     -0.0009
    104  CE1       61.8910   38.7110   -4.4220 C.ar  230  TYR230      0.0417
    105  CE2       61.1270   40.3800   -5.9570 C.ar  230  TYR230      0.0417
    106  CZ        60.9440   39.6350   -4.8130 C.ar  230  TYR230      0.1957
    107  OH        59.8020   39.8130   -4.0740 O.3   230  TYR230     -0.2866
    108  N         61.7950   35.5120  -11.5380 N.3   233  ARG233     -0.1231
    109  CA        61.0840   34.4150  -10.9980 C.3   233  ARG233      0.1694
    110  C         59.8720   34.7700  -10.2750 C.2   233  ARG233      0.2592
    111  O         59.2250   33.9940   -9.8390 O.2   233  ARG233     -0.2718
    112  CB        61.9860   33.7130  -10.1070 C.3   233  ARG233      0.0321
    113  CG        61.4580   33.4600   -8.9020 C.3   233  ARG233      0.0489
    114  CD        62.5310   33.1760   -7.8880 C.3   233  ARG233      0.2205
    115  NE        62.2640   31.8960   -7.3210 N.pl3 233  ARG233     -0.0865
    116  CZ        62.2090   31.6160   -6.0560 C.cat 233  ARG233      0.5346
    117  NH1       61.8990   30.4180   -5.6850 N.pl3 233  ARG233      0.1354
    118  NH2       62.4480   32.5390   -5.2080 N.pl3 233  ARG233      0.1354
    119  N         59.5690   36.0060  -10.1260 N.am  234  PHE234     -0.1976
    120  CA        58.2590   36.4130   -9.6190 C.3   234  PHE234      0.1639
    121  C         57.2750   36.1290  -10.6880 C.2   234  PHE234      0.2290
    122  O         56.2190   35.5480  -10.4360 O.2   234  PHE234     -0.2864
    123  CB        58.2490   37.8970   -9.2710 C.3   234  PHE234      0.0560
    124  CG        56.9350   38.3960   -8.6950 C.ar  234  PHE234     -0.0200
    125  CD1       56.8340   38.7340   -7.3480 C.ar  234  PHE234     -0.0042
    126  CD2       55.8360   38.6180   -9.5200 C.ar  234  PHE234     -0.0042
    127  CE1       55.6760   39.2890   -6.8430 C.ar  234  PHE234     -0.0003
    128  CE2       54.6670   39.1750   -9.0170 C.ar  234  PHE234     -0.0003
    129  CZ        54.5940   39.5120   -7.6730 C.ar  234  PHE234     -0.0000
    130  N         56.5310   32.4180  -11.1870 N.3   237  MET237     -0.1245
    131  CA        55.6510   31.7960  -10.1890 C.3   237  MET237      0.1570
    132  C         54.1750   32.0490  -10.3970 C.2   237  MET237      0.2261
    133  O         53.3500   31.4140   -9.7560 O.2   237  MET237     -0.2867
    134  CB        56.0240   32.2410   -8.7850 C.3   237  MET237      0.0387
    135  CG        57.3820   31.7700   -8.3530 C.3   237  MET237      0.0595
    136  SD        57.7280   32.3240   -6.7090 S.3   237  MET237     -0.1393
    137  CE        57.3330   30.8750   -5.7730 C.3   237  MET237      0.0692
    138  N         51.7660   30.8750   -7.2730 N.3   242  PHE242     -0.1241
    139  CA        50.6350   31.7920   -7.2180 C.3   242  PHE242      0.1605
    140  C         49.3980   31.2310   -7.8870 C.2   242  PHE242      0.2264
    141  O         48.3000   31.7600   -7.7150 O.2   242  PHE242     -0.2867
    142  CB        51.0010   33.1440   -7.8570 C.3   242  PHE242      0.0534
    143  CG        52.2360   33.7930   -7.2710 C.ar  242  PHE242     -0.0203
    144  CD1       52.6930   33.4470   -6.0010 C.ar  242  PHE242     -0.0042
    145  CD2       52.9540   34.7330   -8.0020 C.ar  242  PHE242     -0.0042
    146  CE1       53.8460   34.0180   -5.4750 C.ar  242  PHE242     -0.0003
    147  CE2       54.1150   35.3140   -7.4830 C.ar  242  PHE242     -0.0003
    148  CZ        54.5620   34.9540   -6.2180 C.ar  242  PHE242     -0.0000
    149  N         49.3140   34.6880   -2.2010 N.3   249  PHE249     -0.1241
    150  CA        49.5220   35.6130   -3.3030 C.3   249  PHE249      0.1605
    151  C         48.9330   35.1170   -4.6000 C.2   249  PHE249      0.2264
    152  O         49.5090   35.3180   -5.6640 O.2   249  PHE249     -0.2867
    153  CB        51.0160   35.8760   -3.4910 C.3   249  PHE249      0.0534
    154  CG        51.6960   36.4080   -2.2620 C.ar  249  PHE249     -0.0203
    155  CD1       52.4750   35.5770   -1.4710 C.ar  249  PHE249     -0.0042
    156  CD2       51.5320   37.7340   -1.8810 C.ar  249  PHE249     -0.0042
    157  CE1       53.0800   36.0570   -0.3220 C.ar  249  PHE249     -0.0003
    158  CE2       52.1320   38.2230   -0.7350 C.ar  249  PHE249     -0.0003
    159  CZ        52.9090   37.3830    0.0470 C.ar  249  PHE249     -0.0000
    160  N         48.5430   37.5490   -7.5690 N.3   252  TYR252     -0.1241
    161  CA        49.6430   37.8780   -8.4730 C.3   252  TYR252      0.1605
    162  C         49.5970   37.0530   -9.7630 C.2   252  TYR252      0.2264
    163  O         50.1650   37.4340  -10.7830 O.2   252  TYR252     -0.2867
    164  CB        50.9810   37.6390   -7.7590 C.3   252  TYR252      0.0534
    165  CG        51.3190   38.6490   -6.6800 C.ar  252  TYR252     -0.0201
    166  CD1       52.0580   38.2730   -5.5620 C.ar  252  TYR252     -0.0009
    167  CD2       50.9380   39.9900   -6.7970 C.ar  252  TYR252     -0.0009
    168  CE1       52.4150   39.2000   -4.5850 C.ar  252  TYR252      0.0417
    169  CE2       51.2900   40.9300   -5.8230 C.ar  252  TYR252      0.0417
    170  CZ        52.0310   40.5270   -4.7160 C.ar  252  TYR252      0.1957
    171  OH        52.3940   41.4430   -3.7440 O.3   252  TYR252     -0.2866
    172  N         58.7620   45.3190   -4.4630 N.3   267  ILE267     -0.1245
    173  CA        59.0730   44.5110   -3.2870 C.3   267  ILE267      0.1561
    174  C         60.5770   44.4580   -3.0990 C.2   267  ILE267      0.2260
    175  O         61.0800   44.6670   -1.9950 O.2   267  ILE267     -0.2867
    176  CB        58.5350   43.0730   -3.3950 C.3   267  ILE267      0.0252
    177  CG1       57.0760   43.0850   -3.8720 C.3   267  ILE267      0.0019
    178  CG2       58.6130   42.4120   -2.0330 C.3   267  ILE267      0.0019
    179  CD1       56.3970   41.7240   -3.9110 C.3   267  ILE267      0.0001
    180  N         61.9660   45.9670    0.1850 N.3   271  ILE271     -0.1231
    181  CA        62.2840   44.9610    1.1920 C.3   271  ILE271      0.1692
    182  C         63.6290   44.2500    1.0420 C.2   271  ILE271      0.2592
    183  O         64.5810   44.5620    1.7550 O.2   271  ILE271     -0.2718
    184  CB        61.1590   43.8900    1.3060 C.3   271  ILE271      0.0266
    185  CG1       59.8090   44.5790    1.5080 C.3   271  ILE271      0.0019
    186  CG2       61.4320   42.9650    2.4970 C.3   271  ILE271      0.0020
    187  CD1       58.6640   43.6340    1.7960 C.3   271  ILE271      0.0001
    188  N         63.7060   43.2970    0.1210 N.am  272  ASN272     -0.1974
    189  CA        64.9190   42.5100   -0.0910 C.3   272  ASN272      0.1688
    190  C         66.1900   43.2750   -0.4620 C.2   272  ASN272      0.2292
    191  O         67.2820   42.9190   -0.0200 O.2   272  ASN272     -0.2864
    192  CB        64.6250   41.4430   -1.1330 C.3   272  ASN272      0.1181
    193  CG        63.3980   40.6410   -0.7850 C.2   272  ASN272      0.2629
    194  OD1       63.3490   39.9970    0.2570 O.2   272  ASN272     -0.2716
    195  ND2       62.3930   40.6910   -1.6440 N.am  272  ASN272     -0.0877
@<TRIPOS>BOND
     1   108   109    1
     2   130   131    1
     3   109   110    1
     4   109   112    1
     5   163   162    2
     6   121   122    2
     7   121   120    1
     8   132   131    1
     9   132   133    2
    10   110   119   am
    11   110   111    2
    12   131   134    1
    13   119   120    1
    14   112   113    1
    15   162   161    1
    16   120   123    1
    17   126   128   ar
    18   126   124   ar
    19   123   124    1
    20    96    97    1
    21    98    99    2
    22    98    97    1
    23   128   129   ar
    24   113   114    1
    25   134   135    1
    26   124   125   ar
    27   161   164    1
    28   161   160    1
    29   135   136    1
    30    97   100    1
    31   145   147   ar
    32   145   143   ar
    33   114   115    1
    34   140   141    2
    35   140   139    1
    36   142   143    1
    37   142   139    1
    38   164   165    1
    39   129   127   ar
    40   147   148   ar
    41   125   127   ar
    42   115   116    2
    43   138   139    1
    44   143   144   ar
    45   100   101    1
    46   167   165   ar
    47   167   169   ar
    48    11    10    2
    49   103   101   ar
    50   103   105   ar
    51   136   137    1
    52   165   166   ar
    53   101   102   ar
    54   148   146   ar
    55   116   117    1
    56   116   118    1
    57   144   146   ar
    58   105   106   ar
    59    12     9    1
    60   169   170   ar
    61   152   151    2
    62   166   168   ar
    63    10     9    1
    64   102   104   ar
    65     9     8    1
    66   106   104   ar
    67   106   107    1
    68   170   168   ar
    69   170   171    1
    70   151   150    1
    71   172   173    1
    72   179   177    1
    73   177   176    1
    74     4     3    2
    75     8     3   am
    76   153   150    1
    77   153   154    1
    78   176   173    1
    79   176   178    1
    80   150   149    1
    81   173   174    1
    82   174   175    2
    83     3     2    1
    84   154   156   ar
    85   154   155   ar
    86     6     5    1
    87   156   158   ar
    88   195   193   am
    89     2     5    1
    90     2     1    1
    91   155   157   ar
    92     5     7    1
    93   192   193    1
    94   192   189    1
    95   193   194    2
    96   158   159   ar
    97   190   189    1
    98   190   191    2
    99   157   159   ar
   100   189   188    1
   101   188   182   am
   102   180   181    1
   103    69    68    2
   104    72    71   ar
   105    72    74   ar
   106    70    71    1
   107    70    67    1
   108   182   181    1
   109   182   183    2
   110   181   184    1
   111    68    67    1
   112   184   185    1
   113   184   186    1
   114    71    73   ar
   115    74    75   ar
   116   185   187    1
   117    67    66    1
   118    73    75   ar
   119    95    93    1
   120    84    82   ar
   121    84    86   ar
   122    82    81   ar
   123    87    86    1
   124    86    85   ar
   125    80    81    1
   126    80    77    1
   127    81    83   ar
   128    76    77    1
   129    85    83   ar
   130    77    78    1
   131    93    94    1
   132    93    92    1
   133    20    18   ar
   134    32    31    2
   135    63    61   ar
   136    63    64   ar
   137    92    89    1
   138    65    64    1
   139    89    88    1
   140    89    90    1
   141    18    19   ar
   142    18    17    1
   143    78    79    2
   144    61    59   ar
   145    91    90    2
   146    64    62   ar
   147    57    56    2
   148    31    30    1
   149    31    38   am
   150    36    35    1
   151    36    37    1
   152    33    30    1
   153    33    34    1
   154    39    38    1
   155    39    40    1
   156    35    34    1
   157    56    55    1
   158    29    30    1
   159    17    14    1
   160    59    58    1
   161    59    60   ar
   162    40    41    2
   163    62    60   ar
   164    53    52    1
   165    58    55    1
   166    55    54    1
   167    27    26    1
   168    14    13    1
   169    14    15    1
   170    52    50   ar
   171    52    51   ar
   172    50    48   ar
   173    15    16    2
   174    26    28    1
   175    26    25    1
   176    51    49   ar
   177    25    22    1
   178    48    47   ar
   179    49    47   ar
   180    47    46    1
   181    22    21    1
   182    22    23    1
   183    23    24    2
   184    46    43    1
   185    42    43    1
   186    43    44    1
   187    44    45    2
