@<TRIPOS>MOLECULE
tmp/3avrA00.pdb
 122 114 0 0 0
SMALL
GASTEIGER

@<TRIPOS>ATOM
      1  N        -25.3310  -11.0080   -4.9740 N.3   162  PHE162     -0.1241
      2  CA       -23.9970  -10.9600   -5.5710 C.3   162  PHE162      0.1605
      3  C        -23.0430  -10.4950   -4.4660 C.2   162  PHE162      0.2264
      4  O        -23.2040   -9.3950   -3.9340 O.2   162  PHE162     -0.2867
      5  CB       -24.0680   -9.9820   -6.7630 C.3   162  PHE162      0.0534
      6  CG       -22.7300   -9.6310   -7.4320 C.ar  162  PHE162     -0.0203
      7  CD1      -21.5750  -10.3720   -7.2270 C.ar  162  PHE162     -0.0042
      8  CD2      -22.6570   -8.5320   -8.2970 C.ar  162  PHE162     -0.0042
      9  CE1      -20.3780  -10.0160   -7.8710 C.ar  162  PHE162     -0.0003
     10  CE2      -21.4690   -8.1930   -8.9270 C.ar  162  PHE162     -0.0003
     11  CZ       -20.3400   -8.9280   -8.7170 C.ar  162  PHE162     -0.0000
     12  N        -14.9050  -11.5990   -5.6940 N.3   213  TYR213     -0.1241
     13  CA       -16.3100  -11.5470   -6.0680 C.3   213  TYR213      0.1605
     14  C        -16.8380  -12.9720   -5.9850 C.2   213  TYR213      0.2264
     15  O        -16.1930  -13.9020   -6.4600 O.2   213  TYR213     -0.2867
     16  CB       -16.4660  -11.0410   -7.5140 C.3   213  TYR213      0.0534
     17  CG       -15.9810   -9.6090   -7.7090 C.ar  213  TYR213     -0.0201
     18  CD1      -16.8470   -8.5280   -7.5630 C.ar  213  TYR213     -0.0009
     19  CD2      -14.6550   -9.3450   -8.0250 C.ar  213  TYR213     -0.0009
     20  CE1      -16.4000   -7.2110   -7.7430 C.ar  213  TYR213      0.0417
     21  CE2      -14.2000   -8.0440   -8.1970 C.ar  213  TYR213      0.0417
     22  CZ       -15.0700   -6.9810   -8.0620 C.ar  213  TYR213      0.1957
     23  OH       -14.5840   -5.6920   -8.2430 O.3   213  TYR213     -0.2866
     24  N        -20.2020  -15.0950   -7.0700 N.3   215  LYS215     -0.1245
     25  CA       -21.3180  -14.8330   -7.9690 C.3   215  LYS215      0.1561
     26  C        -22.2440  -16.0240   -8.1760 C.2   215  LYS215      0.2260
     27  O        -21.8280  -17.1830   -8.0900 O.2   215  LYS215     -0.2867
     28  CB       -20.7720  -14.4330   -9.3460 C.3   215  LYS215      0.0271
     29  CG       -19.8220  -13.2310   -9.3110 C.3   215  LYS215      0.0035
     30  CD       -19.3480  -12.8590  -10.7260 C.3   215  LYS215      0.0206
     31  CE       -18.2380  -11.7900  -10.7100 C.3   215  LYS215      0.1093
     32  NZ       -17.7830  -11.4670  -12.1110 N.3   215  LYS215     -0.1314
     33  N        -25.3820  -12.2170  -11.8790 N.3   219  SER219     -0.1217
     34  CA       -24.7600  -11.2110  -11.0080 C.3   219  SER219      0.1889
     35  C        -24.0130  -10.1960  -11.8640 C.2   219  SER219      0.2288
     36  O        -23.0870  -10.5600  -12.5800 O.2   219  SER219     -0.2866
     37  CB       -23.7560  -11.8470  -10.0410 C.3   219  SER219      0.2089
     38  OG       -24.3880  -12.7250   -9.1230 O.3   219  SER219     -0.2183
     39  N        -21.8610   -6.4980  -12.6160 N.3   221  THR221     -0.1218
     40  CA       -21.1730   -5.2600  -12.2980 C.3   221  THR221      0.1862
     41  C        -21.5130   -4.2880  -13.4230 C.2   221  THR221      0.2287
     42  O        -21.1450   -4.5040  -14.5710 O.2   221  THR221     -0.2866
     43  CB       -19.6560   -5.4610  -12.1800 C.3   221  THR221      0.1770
     44  OG1      -19.3930   -6.4100  -11.1370 O.3   221  THR221     -0.2211
     45  CG2      -18.9640   -4.1400  -11.8350 C.3   221  THR221      0.0375
     46  N        -18.8280    1.0030  -15.9810 N.3   224  HIS224     -0.1241
     47  CA       -17.9090    1.9160  -15.3170 C.3   224  HIS224      0.1621
     48  C        -16.5700    2.0080  -16.0190 C.2   224  HIS224      0.2264
     49  O        -16.2140    1.1610  -16.8480 O.2   224  HIS224     -0.2867
     50  CB       -17.6440    1.4230  -13.9110 C.3   224  HIS224      0.0745
     51  CG       -17.0620    0.0530  -13.8800 C.ar  224  HIS224      0.0817
     52  ND1      -17.7930   -1.0660  -14.2240 N.ar  224  HIS224     -0.2268
     53  CD2      -15.8170   -0.3880  -13.5870 C.ar  224  HIS224      0.1154
     54  CE1      -17.0280   -2.1370  -14.1280 C.ar  224  HIS224      0.1986
     55  NE2      -15.8280   -1.7540  -13.7310 N.ar  224  HIS224     -0.2212
     56  N        -12.5980    2.2410  -14.3660 N.3   226  GLU226     -0.1245
     57  CA       -11.9240    2.0600  -13.0730 C.3   226  GLU226      0.1567
     58  C        -11.6520    3.4090  -12.4000 C.2   226  GLU226      0.2260
     59  O        -11.6160    4.4490  -13.0520 O.2   226  GLU226     -0.2867
     60  CB       -10.5840    1.3560  -13.2560 C.3   226  GLU226      0.0388
     61  CG       -10.6800   -0.0250  -13.8480 C.3   226  GLU226      0.1160
     62  CD       -11.5940   -0.9090  -13.0320 C.2   226  GLU226      0.3649
     63  OE1      -11.4100   -1.0380  -11.8040 O.co2 226  GLU226     -0.2457
     64  OE2      -12.5180   -1.4430  -13.6290 O.co2 226  GLU226     -0.2457
     65  N         -7.1710   -2.7190  -14.9270 N.3   232  SER232     -0.1217
     66  CA        -7.6620   -3.6950  -13.9640 C.3   232  SER232      0.1889
     67  C         -7.3490   -5.1140  -14.4480 C.2   232  SER232      0.2288
     68  O         -7.3700   -5.3940  -15.6420 O.2   232  SER232     -0.2866
     69  CB        -9.1630   -3.5020  -13.7170 C.3   232  SER232      0.2089
     70  OG        -9.9360   -4.0840  -14.7460 O.3   232  SER232     -0.2183
     71  N         -8.2620   -9.2140  -13.7600 N.3   234  ASN234     -0.1240
     72  CA        -9.3470  -10.0190  -13.1900 C.3   234  ASN234      0.1653
     73  C         -9.1340  -11.4770  -13.5820 C.2   234  ASN234      0.2266
     74  O         -8.9830  -11.7910  -14.7630 O.2   234  ASN234     -0.2867
     75  CB       -10.7010   -9.5040  -13.7220 C.3   234  ASN234      0.1155
     76  CG       -11.8920  -10.2810  -13.1820 C.2   234  ASN234      0.2627
     77  OD1      -11.9550  -11.5180  -13.2860 O.2   234  ASN234     -0.2716
     78  ND2      -12.8610   -9.5550  -12.6180 N.am  234  ASN234     -0.0877
     79  N        -18.2540  -10.4880  -20.6050 N.3   244  TRP244     -0.1241
     80  CA       -17.7250   -9.1240  -20.4970 C.3   244  TRP244      0.1605
     81  C        -18.1650   -8.2870  -21.7000 C.2   244  TRP244      0.2264
     82  O        -18.2370   -8.7950  -22.8270 O.2   244  TRP244     -0.2867
     83  CB       -16.1900   -9.1430  -20.4700 C.3   244  TRP244      0.0550
     84  CG       -15.6050   -9.6700  -19.1850 C.ar  244  TRP244      0.0003
     85  CD1      -15.6390  -10.9550  -18.7370 C.ar  244  TRP244      0.0946
     86  CD2      -14.8870   -8.9170  -18.1970 C.ar  244  TRP244      0.0152
     87  NE1      -14.9970  -11.0510  -17.5210 N.ar  244  TRP244     -0.2442
     88  CE2      -14.5250   -9.8160  -17.1680 C.ar  244  TRP244      0.0810
     89  CE3      -14.5260   -7.5730  -18.0780 C.ar  244  TRP244      0.0012
     90  CZ2      -13.8100   -9.4150  -16.0330 C.ar  244  TRP244      0.0191
     91  CZ3      -13.8120   -7.1720  -16.9460 C.ar  244  TRP244      0.0001
     92  CH2      -13.4610   -8.0940  -15.9410 C.ar  244  TRP244      0.0015
     93  N        -16.4800   -0.6560  -19.1770 N.3   304  HIS304     -0.1241
     94  CA       -16.9110   -2.0470  -19.2310 C.3   304  HIS304      0.1621
     95  C        -17.9820   -2.4020  -18.2210 C.2   304  HIS304      0.2264
     96  O        -18.2130   -1.6950  -17.2420 O.2   304  HIS304     -0.2867
     97  CB       -15.7060   -2.9810  -19.0610 C.3   304  HIS304      0.0745
     98  CG       -14.9800   -2.7820  -17.7690 C.ar  304  HIS304      0.0817
     99  ND1      -14.2480   -1.6440  -17.4980 N.ar  304  HIS304     -0.2268
    100  CD2      -14.8860   -3.5650  -16.6690 C.ar  304  HIS304      0.1154
    101  CE1      -13.7250   -1.7400  -16.2870 C.ar  304  HIS304      0.1986
    102  NE2      -14.0870   -2.9000  -15.7720 N.ar  304  HIS304     -0.2212
    103  N        -20.0540   -6.2880  -16.7070 N.3   306  VAL306     -0.1245
    104  CA       -19.7950   -7.7260  -16.6180 C.3   306  VAL306      0.1561
    105  C        -20.9800   -8.4380  -15.9700 C.2   306  VAL306      0.2260
    106  O        -21.6320   -7.8900  -15.0810 O.2   306  VAL306     -0.2867
    107  CB       -18.5690   -7.9960  -15.7130 C.3   306  VAL306      0.0252
    108  CG1      -18.1600   -9.4890  -15.7730 C.3   306  VAL306      0.0019
    109  CG2      -17.3980   -7.0680  -16.0830 C.3   306  VAL306      0.0019
    110  N        -14.4670  -14.5270   -8.7150 N.3   314  ASN314     -0.1240
    111  CA       -13.4110  -13.8320   -9.4630 C.3   314  ASN314      0.1653
    112  C        -12.5270  -13.1340   -8.4530 C.2   314  ASN314      0.2266
    113  O        -13.0030  -12.7490   -7.3810 O.2   314  ASN314     -0.2867
    114  CB       -13.9850  -12.7570  -10.4100 C.3   314  ASN314      0.1155
    115  CG       -14.8410  -13.3380  -11.5200 C.2   314  ASN314      0.2627
    116  OD1      -15.9320  -13.8490  -11.2710 O.2   314  ASN314     -0.2716
    117  ND2      -14.3590  -13.2370  -12.7650 N.am  314  ASN314     -0.0877
    118  N         -9.6410   -9.7580   -8.3690 N.3   316  ALA316     -0.1245
    119  CA        -9.2780   -8.6450   -9.2370 C.3   316  ALA316      0.1562
    120  C         -8.6650   -7.5010   -8.4350 C.2   316  ALA316      0.2260
    121  O         -8.8680   -7.3960   -7.2260 O.2   316  ALA316     -0.2867
    122  CB       -10.5210   -8.1460  -10.0090 C.3   316  ALA316      0.0290
@<TRIPOS>BOND
     1    82    81    2
     2    81    80    1
     3    79    80    1
     4    80    83    1
     5    83    84    1
     6    94    93    1
     7    94    97    1
     8    94    95    1
     9    84    85   ar
    10    84    86   ar
    11    97    98    1
    12    85    87   ar
    13    95    96    2
    14    86    89   ar
    15    86    88   ar
    16    89    91   ar
    17    98    99   ar
    18    98   100   ar
    19    87    88   ar
    20    99   101   ar
    21    88    90   ar
    22    91    92   ar
    23    49    48    2
    24   103   104    1
    25   100   102   ar
    26   104   105    1
    27   104   107    1
    28   101   102   ar
    29   109   107    1
    30    90    92   ar
    31    48    47    1
    32    46    47    1
    33   105   106    2
    34   108   107    1
    35    68    67    2
    36    47    50    1
    37    65    66    1
    38    74    73    2
    39    70    69    1
    40    42    41    2
    41    67    66    1
    42    56    57    1
    43    52    54   ar
    44    52    51   ar
    45    54    55   ar
    46    66    69    1
    47    50    51    1
    48    51    53   ar
    49    61    60    1
    50    61    62    1
    51    71    72    1
    52    55    53   ar
    53    75    72    1
    54    75    76    1
    55    64    62   ar
    56    73    72    1
    57    41    40    1
    58    77    76    2
    59    60    57    1
    60    76    78   am
    61    57    58    1
    62    59    58    2
    63    62    63   ar
    64   117   115   am
    65    39    40    1
    66    36    35    2
    67    40    43    1
    68    43    45    1
    69    43    44    1
    70    32    31    1
    71    33    34    1
    72    35    34    1
    73   115   116    2
    74   115   114    1
    75    34    37    1
    76    30    31    1
    77    30    29    1
    78   114   111    1
    79    37    38    1
    80   122   119    1
    81   111   110    1
    82   111   112    1
    83    28    29    1
    84    28    25    1
    85   119   120    1
    86   119   118    1
    87    10    11   ar
    88    10     8   ar
    89    11     9   ar
    90   112   113    2
    91   120   121    2
    92     8     6   ar
    93    23    22    1
    94    21    22   ar
    95    21    19   ar
    96    26    27    2
    97    26    25    1
    98    22    20   ar
    99    19    17   ar
   100    25    24    1
   101     9     7   ar
   102    20    18   ar
   103    17    18   ar
   104    17    16    1
   105    16    13    1
   106     6     7   ar
   107     6     5    1
   108     5     2    1
   109    15    14    2
   110    13    14    1
   111    13    12    1
   112     2     1    1
   113     2     3    1
   114     3     4    2
