@<TRIPOS>MOLECULE
tmp/3avzA00.pdb
 202 200 0 0 0
SMALL
GASTEIGER

@<TRIPOS>ATOM
      1  N        -24.1480  -50.8550   -2.3240 N.3    26  THR26      -0.1203
      2  CA       -22.8820  -51.5300   -2.1730 C.3    26  THR26       0.1994
      3  C        -21.8510  -50.5930   -1.6020 C.2    26  THR26       0.2617
      4  O        -21.6650  -49.5140   -2.0980 O.2    26  THR26      -0.2717
      5  CB       -22.3480  -52.0270   -3.4930 C.3    26  THR26       0.1784
      6  OG1      -23.2750  -52.9440   -4.0620 O.3    26  THR26      -0.2211
      7  CG2      -21.0520  -52.7310   -3.2840 C.3    26  THR26       0.0376
      8  N        -21.1730  -51.0330   -0.5580 N.am   27  LEU27      -0.1979
      9  CA       -20.0760  -50.3040    0.0360 C.3    27  LEU27       0.1596
     10  C        -19.0260  -51.2780    0.5220 C.2    27  LEU27       0.2287
     11  O        -19.2170  -52.4610    0.4270 O.2    27  LEU27      -0.2864
     12  CB       -20.5520  -49.3980    1.1440 C.3    27  LEU27       0.0297
     13  CG       -21.6480  -49.8800    2.0550 C.3    27  LEU27       0.0022
     14  CD1      -21.1510  -51.0130    2.8620 C.3    27  LEU27       0.0001
     15  CD2      -22.0350  -48.7550    2.9380 C.3    27  LEU27       0.0001
     16  N        -25.3800  -48.2480    8.0130 N.3    41  HIS41      -0.1241
     17  CA       -26.3880  -47.6490    7.1810 C.3    41  HIS41       0.1621
     18  C        -26.5040  -48.3330    5.8420 C.2    41  HIS41       0.2264
     19  O        -27.2500  -47.9290    4.9860 O.2    41  HIS41      -0.2867
     20  CB       -26.1990  -46.1520    7.0630 C.3    41  HIS41       0.0745
     21  CG       -25.0180  -45.7490    6.2610 C.ar   41  HIS41       0.0817
     22  ND1      -24.9030  -46.0260    4.9250 N.ar   41  HIS41      -0.2268
     23  CD2      -23.9160  -45.0550    6.5950 C.ar   41  HIS41       0.1154
     24  CE1      -23.7690  -45.5410    4.4740 C.ar   41  HIS41       0.1986
     25  NE2      -23.1520  -44.9470    5.4690 N.ar   41  HIS41      -0.2212
     26  N        -29.8790  -49.2570    4.9640 N.3    44  CYS44      -0.1235
     27  CA       -30.7850  -48.1510    4.6780 C.3    44  CYS44       0.1677
     28  C        -31.1620  -48.1110    3.2010 C.2    44  CYS44       0.2270
     29  O        -30.6740  -48.9130    2.4040 O.2    44  CYS44      -0.2867
     30  CB       -30.1550  -46.8200    5.0960 C.3    44  CYS44       0.0956
     31  SG       -30.3350  -46.4270    6.8510 S.3    44  CYS44      -0.0801
     32  N        -32.9190  -43.4980    5.2620 N.3    49  MET49      -0.1245
     33  CA       -31.8830  -42.6060    5.6760 C.3    49  MET49       0.1570
     34  C        -32.5450  -41.3990    6.2310 C.2    49  MET49       0.2261
     35  O        -32.0610  -40.8000    7.1510 O.2    49  MET49      -0.2867
     36  CB       -31.0350  -42.2090    4.5010 C.3    49  MET49       0.0387
     37  CG       -30.5760  -43.3530    3.6820 C.3    49  MET49       0.0595
     38  SD       -29.9510  -42.8000    2.1220 S.3    49  MET49      -0.1393
     39  CE       -28.9830  -44.2000    1.6940 C.3    49  MET49       0.0692
     40  N        -32.5390  -47.8860   13.7260 N.3    54  TYR54      -0.1241
     41  CA       -31.7230  -48.9970   13.3470 C.3    54  TYR54       0.1605
     42  C        -32.2020  -50.3180   13.8580 C.2    54  TYR54       0.2264
     43  O        -32.1320  -51.2960   13.1620 O.2    54  TYR54      -0.2867
     44  CB       -30.2420  -48.7210   13.5870 C.3    54  TYR54       0.0534
     45  CG       -29.7340  -47.7680   12.5550 C.ar   54  TYR54      -0.0201
     46  CD1      -29.3750  -48.1990   11.3140 C.ar   54  TYR54      -0.0009
     47  CD2      -29.7040  -46.4260   12.7970 C.ar   54  TYR54      -0.0009
     48  CE1      -28.9600  -47.3290   10.3810 C.ar   54  TYR54       0.0417
     49  CE2      -29.2970  -45.5660   11.8670 C.ar   54  TYR54       0.0417
     50  CZ       -28.9170  -46.0150   10.6670 C.ar   54  TYR54       0.1957
     51  OH       -28.4980  -45.1240    9.7420 O.3    54  TYR54      -0.2866
     52  N        -13.5480  -38.0990   -0.8410 N.3   140  PHE140     -0.1227
     53  CA       -14.4280  -39.2380   -0.8130 C.3   140  PHE140      0.1736
     54  C        -15.5570  -39.0580   -1.7920 C.2   140  PHE140      0.2595
     55  O        -16.0560  -37.9760   -1.9870 O.2   140  PHE140     -0.2718
     56  CB       -15.0140  -39.4110    0.5680 C.3   140  PHE140      0.0547
     57  CG       -14.0990  -40.0200    1.5520 C.ar  140  PHE140     -0.0202
     58  CD1      -13.5700  -41.2480    1.3530 C.ar  140  PHE140     -0.0042
     59  CD2      -13.7900  -39.3670    2.7000 C.ar  140  PHE140     -0.0042
     60  CE1      -12.7620  -41.7990    2.2670 C.ar  140  PHE140     -0.0003
     61  CE2      -12.9830  -39.9220    3.6080 C.ar  140  PHE140     -0.0003
     62  CZ       -12.4720  -41.1370    3.3960 C.ar  140  PHE140     -0.0000
     63  N        -15.9730  -40.1520   -2.3890 N.am  141  LEU141     -0.1966
     64  CA       -17.0430  -40.1400   -3.3440 C.3   141  LEU141      0.1728
     65  C        -17.9990  -41.1870   -2.9280 C.2   141  LEU141      0.2616
     66  O        -17.6740  -42.0370   -2.1490 O.2   141  LEU141     -0.2715
     67  CB       -16.5480  -40.4510   -4.7340 C.3   141  LEU141      0.0311
     68  CG       -15.5550  -39.4990   -5.3580 C.3   141  LEU141      0.0022
     69  CD1      -14.9860  -40.1220   -6.5520 C.3   141  LEU141      0.0001
     70  CD2      -16.2080  -38.2470   -5.7200 C.3   141  LEU141      0.0001
     71  N        -19.1930  -41.1410   -3.4640 N.am  142  ASN142     -0.1958
     72  CA       -20.1690  -42.0950   -3.0460 C.3   142  ASN142      0.1819
     73  C        -19.7340  -43.4960   -3.3540 C.2   142  ASN142      0.2622
     74  O        -19.2010  -43.7660   -4.3900 O.2   142  ASN142     -0.2715
     75  CB       -21.4880  -41.8220   -3.7060 C.3   142  ASN142      0.1195
     76  CG       -22.5540  -42.6850   -3.1690 C.2   142  ASN142      0.2630
     77  OD1      -22.3020  -43.5170   -2.3360 O.2   142  ASN142     -0.2716
     78  ND2      -23.7480  -42.5150   -3.6510 N.am  142  ASN142     -0.0877
     79  N        -20.0090  -44.3930   -2.4370 N.am  143  GLY143     -0.1940
     80  CA       -19.4890  -45.7300   -2.4820 C.3   143  GLY143      0.2014
     81  C        -18.1950  -45.8990   -1.7390 C.2   143  GLY143      0.2640
     82  O        -17.6800  -46.9730   -1.6620 O.2   143  GLY143     -0.2714
     83  N        -17.6870  -44.8300   -1.1650 N.am  144  SER144     -0.1935
     84  CA       -16.4550  -44.8850   -0.4180 C.3   144  SER144      0.2055
     85  C        -16.6720  -45.2710    1.0000 C.2   144  SER144      0.2643
     86  O        -15.7380  -45.4870    1.7050 O.2   144  SER144     -0.2714
     87  CB       -15.7470  -43.5550   -0.4380 C.3   144  SER144      0.2130
     88  OG       -16.6520  -42.5220   -0.2300 O.3   144  SER144     -0.2179
     89  N        -17.9120  -45.4210    1.3990 N.am  145  CYS145     -0.1967
     90  CA       -18.2130  -45.7640    2.7600 C.3   145  CYS145      0.1712
     91  C        -17.5690  -47.0790    3.0760 C.2   145  CYS145      0.2296
     92  O        -17.3990  -47.9040    2.2250 O.2   145  CYS145     -0.2864
     93  CB       -19.7040  -45.8760    2.9690 C.3   145  CYS145      0.0983
     94  SG       -20.5020  -44.3850    3.2620 S.3   145  CYS145     -0.0798
     95  N        -15.3130  -44.7400    7.1950 N.3   163  HIS163     -0.1226
     96  CA       -16.0320  -43.6580    6.5590 C.3   163  HIS163      0.1752
     97  C        -17.5220  -43.8460    6.4900 C.2   163  HIS163      0.2596
     98  O        -17.9780  -44.8970    6.1700 O.2   163  HIS163     -0.2718
     99  CB       -15.4940  -43.4360    5.1680 C.3   163  HIS163      0.0759
    100  CG       -16.0710  -42.2450    4.5000 C.ar  163  HIS163      0.0818
    101  ND1      -16.0400  -41.0050    5.0690 N.ar  163  HIS163     -0.2268
    102  CD2      -16.7270  -42.1060    3.3370 C.ar  163  HIS163      0.1154
    103  CE1      -16.6420  -40.1470    4.2820 C.ar  163  HIS163      0.1986
    104  NE2      -17.0610  -40.7900    3.2210 N.ar  163  HIS163     -0.2212
    105  N        -18.2800  -42.8190    6.8240 N.am  164  HIS164     -0.1961
    106  CA       -19.7240  -42.8880    6.7620 C.3   164  HIS164      0.1787
    107  C        -20.3970  -41.9110    5.8170 C.2   164  HIS164      0.2620
    108  O        -21.2960  -42.2800    5.1160 O.2   164  HIS164     -0.2715
    109  CB       -20.3280  -42.7280    8.1550 C.3   164  HIS164      0.0785
    110  CG       -20.2780  -43.9640    8.9880 C.ar  164  HIS164      0.0821
    111  ND1      -19.1140  -44.6380    9.2400 N.ar  164  HIS164     -0.2267
    112  CD2      -21.2440  -44.6430    9.6320 C.ar  164  HIS164      0.1154
    113  CE1      -19.3620  -45.6830    9.9960 C.ar  164  HIS164      0.1986
    114  NE2      -20.6470  -45.7070   10.2500 N.ar  164  HIS164     -0.2212
    115  N        -20.0050  -40.6500    5.8510 N.am  165  MET165     -0.1963
    116  CA       -20.7660  -39.6090    5.1970 C.3   165  MET165      0.1736
    117  C        -20.0200  -38.3160    4.9130 C.2   165  MET165      0.2616
    118  O        -18.9380  -38.1070    5.3840 O.2   165  MET165     -0.2715
    119  CB       -21.9640  -39.3020    6.0490 C.3   165  MET165      0.0427
    120  CG       -21.6030  -39.0230    7.4530 C.3   165  MET165      0.0599
    121  SD       -23.0060  -38.8790    8.4830 S.3   165  MET165     -0.1393
    122  CE       -22.4970  -37.5990    9.5460 C.3   165  MET165      0.0692
    123  N        -20.6390  -37.4310    4.1540 N.am  166  GLU166     -0.1963
    124  CA       -20.0520  -36.1440    3.8670 C.3   166  GLU166      0.1733
    125  C        -20.8860  -35.0150    4.3700 C.2   166  GLU166      0.2616
    126  O        -22.0630  -35.0030    4.2240 O.2   166  GLU166     -0.2715
    127  CB       -19.8280  -35.9550    2.3860 C.3   166  GLU166      0.0429
    128  CG       -18.9900  -34.7490    2.0620 C.3   166  GLU166      0.1163
    129  CD       -18.6980  -34.6140    0.6030 C.2   166  GLU166      0.3649
    130  OE1      -19.1720  -33.6580    0.0050 O.co2 166  GLU166     -0.2457
    131  OE2      -18.0070  -35.4590    0.0420 O.co2 166  GLU166     -0.2457
    132  N        -20.2480  -34.0580    4.9960 N.am  167  LEU167     -0.1964
    133  CA       -20.9340  -32.8890    5.4760 C.3   167  LEU167      0.1713
    134  C        -21.0790  -31.8660    4.4100 C.2   167  LEU167      0.2458
    135  O        -20.4520  -31.9400    3.4010 O.2   167  LEU167     -0.2730
    136  CB       -20.2440  -32.3080    6.6910 C.3   167  LEU167      0.0310
    137  CG       -20.4350  -33.2540    7.8480 C.3   167  LEU167      0.0022
    138  CD1      -19.5450  -32.9130    8.9620 C.3   167  LEU167      0.0001
    139  CD2      -21.8450  -33.2080    8.2880 C.3   167  LEU167      0.0001
    140  N        -21.8780  -30.8660    4.6850 N.am  168  PRO168     -0.2727
    141  CA       -22.2400  -29.8600    3.7160 C.3   168  PRO168      0.1402
    142  C        -21.0290  -29.1290    3.2130 C.2   168  PRO168      0.2269
    143  O        -21.0060  -28.7210    2.0740 O.2   168  PRO168     -0.2865
    144  CB       -23.1030  -28.9420    4.5330 C.3   168  PRO168      0.0296
    145  CG       -23.7590  -29.8210    5.4250 C.3   168  PRO168      0.0237
    146  CD       -22.7970  -30.8420    5.8180 C.3   168  PRO168      0.0939
    147  N        -15.5950  -34.7680    6.0090 N.3   172  HIS172     -0.1241
    148  CA       -16.0820  -36.0920    6.2130 C.3   172  HIS172      0.1621
    149  C        -16.1660  -36.5200    7.6360 C.2   172  HIS172      0.2264
    150  O        -15.4290  -36.0660    8.4560 O.2   172  HIS172     -0.2867
    151  CB       -15.2210  -37.0040    5.3870 C.3   172  HIS172      0.0745
    152  CG       -15.1010  -36.5380    3.9790 C.ar  172  HIS172      0.0817
    153  ND1      -16.0630  -36.7910    3.0380 N.ar  172  HIS172     -0.2268
    154  CD2      -14.1820  -35.7630    3.3750 C.ar  172  HIS172      0.1154
    155  CE1      -15.7290  -36.2190    1.9070 C.ar  172  HIS172      0.1986
    156  NE2      -14.5920  -35.5870    2.0860 N.ar  172  HIS172     -0.2212
    157  N        -25.7120  -41.0490   12.2310 N.3   187  ASP187     -0.1225
    158  CA       -25.9550  -41.4930   10.8790 C.3   187  ASP187      0.1805
    159  C        -27.3750  -41.3240   10.4580 C.2   187  ASP187      0.2598
    160  O        -28.0800  -42.2780   10.2970 O.2   187  ASP187     -0.2718
    161  CB       -25.4850  -42.9130   10.5940 C.3   187  ASP187      0.1424
    162  CG       -25.6400  -43.8220   11.7370 C.2   187  ASP187      0.3668
    163  OD1      -26.2370  -43.4310   12.7240 O.co2 187  ASP187     -0.2456
    164  OD2      -25.1560  -44.9390   11.6370 O.co2 187  ASP187     -0.2456
    165  N        -27.7750  -40.0830   10.2630 N.am  188  ILE188     -0.1966
    166  CA       -29.0500  -39.7670    9.6710 C.3   188  ILE188      0.1727
    167  C        -28.8500  -38.7780    8.5510 C.2   188  ILE188      0.2616
    168  O        -28.0580  -37.8790    8.6660 O.2   188  ILE188     -0.2715
    169  CB       -29.9820  -39.1360   10.6610 C.3   188  ILE188      0.0290
    170  CG1      -30.3860  -40.1430   11.7100 C.3   188  ILE188      0.0022
    171  CG2      -31.1920  -38.6320    9.9620 C.3   188  ILE188      0.0023
    172  CD1      -30.6590  -39.5330   12.9980 C.3   188  ILE188      0.0001
    173  N        -29.5960  -38.9380    7.4720 N.am  189  GLN189     -0.1963
    174  CA       -29.5320  -38.0030    6.3830 C.3   189  GLN189      0.1733
    175  C        -30.4380  -36.8790    6.7420 C.2   189  GLN189      0.2617
    176  O        -31.5660  -36.8390    6.3250 O.2   189  GLN189     -0.2715
    177  CB       -30.0080  -38.6290    5.0870 C.3   189  GLN189      0.0408
    178  CG       -30.4670  -37.6210    4.0730 C.3   189  GLN189      0.0908
    179  CD       -30.3010  -38.0980    2.6530 C.2   189  GLN189      0.2608
    180  OE1      -30.8120  -37.4890    1.7320 O.2   189  GLN189     -0.2717
    181  NE2      -29.5870  -39.1910    2.4720 N.am  189  GLN189     -0.0878
    182  N        -29.9120  -35.9760    7.5460 N.am  190  THR190     -0.1937
    183  CA       -30.6130  -34.7990    7.9860 C.3   190  THR190      0.2028
    184  C        -29.5900  -33.7270    8.1990 C.2   190  THR190      0.2642
    185  O        -28.4240  -33.9960    8.2350 O.2   190  THR190     -0.2714
    186  CB       -31.2810  -35.0190    9.2860 C.3   190  THR190      0.1808
    187  OG1      -32.2190  -33.9720    9.4900 O.3   190  THR190     -0.2208
    188  CG2      -30.2720  -34.9650   10.3710 C.3   190  THR190      0.0379
    189  N        -30.0170  -32.5010    8.3740 N.am  191  ALA191     -0.1963
    190  CA       -29.0580  -31.4350    8.4140 C.3   191  ALA191      0.1728
    191  C        -28.1220  -31.6260    9.5650 C.2   191  ALA191      0.2616
    192  O        -28.5460  -31.8050   10.6770 O.2   191  ALA191     -0.2715
    193  CB       -29.7620  -30.1670    8.5760 C.3   191  ALA191      0.0334
    194  N        -26.8360  -31.6040    9.2800 N.am  192  GLN192     -0.1977
    195  CA       -25.8240  -31.5700   10.3010 C.3   192  GLN192      0.1601
    196  C        -24.6910  -30.6940    9.8180 C.2   192  GLN192      0.2287
    197  O        -24.4050  -30.6610    8.6500 O.2   192  GLN192     -0.2864
    198  CB       -25.3180  -32.9680   10.5790 C.3   192  GLN192      0.0394
    199  CG       -26.3800  -33.9730   10.7680 C.3   192  GLN192      0.0908
    200  CD       -25.8380  -35.2970   11.1900 C.2   192  GLN192      0.2608
    201  OE1      -26.1190  -36.2980   10.5790 O.2   192  GLN192     -0.2717
    202  NE2      -25.0710  -35.3120   12.2430 N.am  192  GLN192     -0.0878
@<TRIPOS>BOND
     1    69    68    1
     2    70    68    1
     3    68    67    1
     4    67    64    1
     5    74    73    2
     6     6     5    1
     7    75    76    1
     8    75    72    1
     9    78    76   am
    10     5     7    1
    11     5     2    1
    12    71    72    1
    13    71    65   am
    14    73    72    1
    15    73    79   am
    16    64    65    1
    17    64    63    1
    18    76    77    2
    19    65    66    2
    20    80    79    1
    21    80    81    1
    22    63    54   am
    23     1     2    1
    24     2     3    1
    25     4     3    2
    26    55    54    2
    27    54    53    1
    28    81    82    2
    29    81    83   am
    30     3     8   am
    31    83    84    1
    32    52    53    1
    33    53    56    1
    34     8     9    1
    35    87    84    1
    36    87    88    1
    37    84    85    1
    38   130   129   ar
    39     9    10    1
    40     9    12    1
    41   131   129   ar
    42    11    10    2
    43    56    57    1
    44   129   128    1
    45    85    89   am
    46    85    86    2
    47    12    13    1
    48    58    57   ar
    49    58    60   ar
    50    89    90    1
    51    57    59   ar
    52    39    38    1
    53   180   179    2
    54   155   156   ar
    55   155   153   ar
    56    13    14    1
    57    13    15    1
    58   128   127    1
    59   143   142    2
    60   156   154   ar
    61    38    37    1
    62    92    91    2
    63    60    62   ar
    64   127   124    1
    65    29    28    2
    66   181   179   am
    67   179   178    1
    68    59    61   ar
    69    90    93    1
    70    90    91    1
    71    93    94    1
    72   153   152   ar
    73    28    27    1
    74   142   141    1
    75   104   102   ar
    76   104   103   ar
    77   102   100   ar
    78   154   152   ar
    79    62    61   ar
    80   135   134    2
    81    37    36    1
    82   141   144    1
    83   141   140    1
    84   124   123    1
    85   124   125    1
    86   152   151    1
    87   178   177    1
    88   123   117   am
    89   126   125    2
    90   103   101   ar
    91   125   132   am
    92   134   140   am
    93   134   133    1
    94    24    22   ar
    95    24    25   ar
    96   100   101   ar
    97   100    99    1
    98    36    33    1
    99   144   145    1
   100    27    26    1
   101    27    30    1
   102   140   146    1
   103   117   116    1
   104   117   118    2
   105    22    21   ar
   106    19    18    2
   107   132   133    1
   108   177   174    1
   109    30    31    1
   110   108   107    2
   111    99    96    1
   112   116   115    1
   113   116   119    1
   114    32    33    1
   115   151   148    1
   116   145   146    1
   117    25    23   ar
   118   133   136    1
   119    33    34    1
   120   107   115   am
   121   107   106    1
   122    18    17    1
   123   147   148    1
   124   119   120    1
   125    98    97    2
   126   148   149    1
   127    34    35    2
   128    21    23   ar
   129    21    20    1
   130   176   175    2
   131   174   175    1
   132   174   173    1
   133    97    96    1
   134    97   105   am
   135    96    95    1
   136   136   137    1
   137   175   182   am
   138   106   105    1
   139   106   109    1
   140    20    17    1
   141    17    16    1
   142   120   121    1
   143   173   167   am
   144   182   183    1
   145   149   150    2
   146   137   139    1
   147   137   138    1
   148   183   184    1
   149   183   186    1
   150   109   110    1
   151   184   185    2
   152   184   189   am
   153   189   190    1
   154   190   193    1
   155   190   191    1
   156   121   122    1
   157   167   168    2
   158   167   166    1
   159   197   196    2
   160   110   111   ar
   161   110   112   ar
   162   111   113   ar
   163   194   191   am
   164   194   195    1
   165   186   187    1
   166   186   188    1
   167   191   192    2
   168   112   114   ar
   169   166   165    1
   170   166   169    1
   171    51    50    1
   172   196   195    1
   173   171   169    1
   174   113   114   ar
   175   165   159   am
   176   160   159    2
   177   195   198    1
   178    48    50   ar
   179    48    46   ar
   180   159   158    1
   181   198   199    1
   182   201   200    2
   183   161   158    1
   184   161   162    1
   185   169   170    1
   186    50    49   ar
   187   199   200    1
   188   158   157    1
   189   200   202   am
   190    46    45   ar
   191   164   162   ar
   192   170   172    1
   193   162   163   ar
   194    49    47   ar
   195    45    47   ar
   196    45    44    1
   197    43    42    2
   198    41    44    1
   199    41    40    1
   200    41    42    1
