@<TRIPOS>MOLECULE
tmp/3aw0A00.pdb
 184 183 0 0 0
SMALL
GASTEIGER

@<TRIPOS>ATOM
      1  N        -24.5640  -51.3120   -1.0380 N.3    26  THR26      -0.1203
      2  CA       -23.2540  -51.9350   -0.9700 C.3    26  THR26       0.1994
      3  C        -22.2230  -50.9580   -0.3910 C.2    26  THR26       0.2617
      4  O        -22.2100  -49.7400   -0.7260 O.2    26  THR26      -0.2717
      5  CB       -22.8070  -52.5230   -2.3590 C.3    26  THR26       0.1784
      6  OG1      -23.5350  -53.7410   -2.5750 O.3    26  THR26      -0.2211
      7  CG2      -21.3370  -52.8840   -2.3730 C.3    26  THR26       0.0376
      8  N        -21.4020  -51.5040    0.5010 N.am   27  LEU27      -0.1979
      9  CA       -20.2090  -50.8180    0.9490 C.3    27  LEU27       0.1596
     10  C        -19.0600  -51.7590    1.3150 C.2    27  LEU27       0.2287
     11  O        -19.1600  -53.0040    1.1360 O.2    27  LEU27      -0.2864
     12  CB       -20.5710  -49.8770    2.0840 C.3    27  LEU27       0.0297
     13  CG       -21.3800  -50.4060    3.2580 C.3    27  LEU27       0.0022
     14  CD1      -20.7300  -51.6270    3.9550 C.3    27  LEU27       0.0001
     15  CD2      -21.5620  -49.2900    4.2050 C.3    27  LEU27       0.0001
     16  N        -25.2020  -48.7020    8.8190 N.3    41  HIS41      -0.1241
     17  CA       -26.1650  -48.2720    7.8210 C.3    41  HIS41       0.1621
     18  C        -26.1270  -49.0570    6.4930 C.2    41  HIS41       0.2264
     19  O        -26.8440  -48.7310    5.5830 O.2    41  HIS41      -0.2867
     20  CB       -26.1670  -46.7640    7.6130 C.3    41  HIS41       0.0745
     21  CG       -24.9960  -46.2550    6.8550 C.ar   41  HIS41       0.0817
     22  ND1      -24.8600  -46.4240    5.4930 N.ar   41  HIS41      -0.2268
     23  CD2      -23.9270  -45.5350    7.2590 C.ar   41  HIS41       0.1154
     24  CE1      -23.7470  -45.8380    5.0920 C.ar   41  HIS41       0.1986
     25  NE2      -23.1610  -45.2970    6.1480 N.ar   41  HIS41      -0.2212
     26  N        -32.7100  -43.7810    6.0870 N.3    49  MET49      -0.1245
     27  CA       -31.6650  -42.8910    6.5690 C.3    49  MET49       0.1570
     28  C        -32.1920  -41.6240    7.2390 C.2    49  MET49       0.2261
     29  O        -31.5430  -41.0890    8.1380 O.2    49  MET49      -0.2867
     30  CB       -30.7170  -42.5180    5.4250 C.3    49  MET49       0.0387
     31  CG       -29.7730  -43.6350    5.0110 C.3    49  MET49       0.0595
     32  SD       -29.4500  -44.8030    6.3470 S.3    49  MET49      -0.1393
     33  CE       -27.8330  -44.2560    6.8900 C.3    49  MET49       0.0692
     34  N        -13.6560  -38.6170   -0.5740 N.3   140  PHE140     -0.1227
     35  CA       -14.5010  -39.8000   -0.5850 C.3   140  PHE140      0.1736
     36  C        -15.6410  -39.6380   -1.5250 C.2   140  PHE140      0.2595
     37  O        -16.1400  -38.5310   -1.6550 O.2   140  PHE140     -0.2718
     38  CB       -15.0980  -40.0280    0.7910 C.3   140  PHE140      0.0547
     39  CG       -14.1340  -40.5830    1.7690 C.ar  140  PHE140     -0.0202
     40  CD1      -13.5050  -41.8080    1.5300 C.ar  140  PHE140     -0.0042
     41  CD2      -13.8220  -39.8780    2.9380 C.ar  140  PHE140     -0.0042
     42  CE1      -12.6140  -42.3530    2.4680 C.ar  140  PHE140     -0.0003
     43  CE2      -12.9280  -40.4130    3.8710 C.ar  140  PHE140     -0.0003
     44  CZ       -12.3370  -41.6570    3.6460 C.ar  140  PHE140     -0.0000
     45  N        -16.0810  -40.7390   -2.1550 N.am  141  LEU141     -0.1966
     46  CA       -17.2920  -40.6890   -3.0090 C.3   141  LEU141      0.1728
     47  C        -18.3570  -41.6180   -2.4860 C.2   141  LEU141      0.2616
     48  O        -18.1360  -42.3410   -1.4950 O.2   141  LEU141     -0.2715
     49  CB       -17.0050  -41.0130   -4.4910 C.3   141  LEU141      0.0311
     50  CG       -15.9430  -40.1730   -5.2280 C.3   141  LEU141      0.0022
     51  CD1      -15.5610  -40.7970   -6.6050 C.3   141  LEU141      0.0001
     52  CD2      -16.3190  -38.6790   -5.3690 C.3   141  LEU141      0.0001
     53  N        -19.5150  -41.6070   -3.1390 N.am  142  ASN142     -0.1958
     54  CA       -20.5340  -42.5500   -2.7360 C.3   142  ASN142      0.1819
     55  C        -19.9760  -43.9710   -2.9220 C.2   142  ASN142      0.2622
     56  O        -19.3100  -44.2620   -3.9090 O.2   142  ASN142     -0.2715
     57  CB       -21.8910  -42.3200   -3.4280 C.3   142  ASN142      0.1195
     58  CG       -23.0740  -42.9760   -2.6440 C.2   142  ASN142      0.2630
     59  OD1      -22.9010  -44.0170   -1.9690 O.2   142  ASN142     -0.2716
     60  ND2      -24.2690  -42.3670   -2.7270 N.am  142  ASN142     -0.0877
     61  N        -20.1850  -44.8130   -1.9280 N.am  143  GLY143     -0.1940
     62  CA       -19.6610  -46.1780   -1.9390 C.3   143  GLY143      0.2014
     63  C        -18.3480  -46.3370   -1.1990 C.2   143  GLY143      0.2640
     64  O        -17.8590  -47.4440   -1.0820 O.2   143  GLY143     -0.2714
     65  N        -17.7870  -45.2390   -0.6930 N.am  144  SER144     -0.1935
     66  CA       -16.5600  -45.2960    0.0890 C.3   144  SER144      0.2055
     67  C        -16.7280  -45.6840    1.5780 C.2   144  SER144      0.2643
     68  O        -15.7410  -45.8340    2.2640 O.2   144  SER144     -0.2714
     69  CB       -15.8110  -43.9420   -0.0140 C.3   144  SER144      0.2130
     70  OG       -16.5230  -42.8730    0.6430 O.3   144  SER144     -0.2179
     71  N        -17.9330  -45.8390    2.0970 N.am  145  CYS145     -0.1967
     72  CA       -18.0950  -46.1970    3.5110 C.3   145  CYS145      0.1712
     73  C        -17.4870  -47.5700    3.7830 C.2   145  CYS145      0.2296
     74  O        -17.3510  -48.4120    2.8660 O.2   145  CYS145     -0.2864
     75  CB       -19.5510  -46.2580    3.9420 C.3   145  CYS145      0.0983
     76  SG       -20.4900  -44.7040    3.9480 S.3   145  CYS145     -0.0798
     77  N        -14.8260  -45.0030    7.7860 N.3   163  HIS163     -0.1226
     78  CA       -15.6230  -43.9210    7.2080 C.3   163  HIS163      0.1752
     79  C        -17.1090  -44.2590    7.1510 C.2   163  HIS163      0.2596
     80  O        -17.4960  -45.3470    6.6810 O.2   163  HIS163     -0.2718
     81  CB       -15.0830  -43.5790    5.8250 C.3   163  HIS163      0.0759
     82  CG       -15.8120  -42.4700    5.1540 C.ar  163  HIS163      0.0818
     83  ND1      -15.9110  -41.2070    5.6980 N.ar  163  HIS163     -0.2268
     84  CD2      -16.4450  -42.4140    3.9620 C.ar  163  HIS163      0.1154
     85  CE1      -16.5840  -40.4200    4.8760 C.ar  163  HIS163      0.1986
     86  NE2      -16.9210  -41.1310    3.8160 N.ar  163  HIS163     -0.2212
     87  N        -17.9180  -43.3310    7.6720 N.am  164  HIS164     -0.1961
     88  CA       -19.3770  -43.4510    7.6890 C.3   164  HIS164      0.1787
     89  C        -20.1880  -42.3610    6.9530 C.2   164  HIS164      0.2620
     90  O        -21.3060  -42.6320    6.5160 O.2   164  HIS164     -0.2715
     91  CB       -19.8770  -43.5720    9.1330 C.3   164  HIS164      0.0785
     92  CG       -19.6950  -44.9350    9.7240 C.ar  164  HIS164      0.0821
     93  ND1      -18.4600  -45.4340   10.0790 N.ar  164  HIS164     -0.2267
     94  CD2      -20.5920  -45.9050   10.0210 C.ar  164  HIS164      0.1154
     95  CE1      -18.6040  -46.6520   10.5700 C.ar  164  HIS164      0.1986
     96  NE2      -19.8880  -46.9620   10.5460 N.ar  164  HIS164     -0.2212
     97  N        -19.6540  -41.1440    6.8100 N.am  165  MET165     -0.1963
     98  CA       -20.4080  -40.0970    6.1300 C.3   165  MET165      0.1736
     99  C        -19.6460  -38.8120    5.8450 C.2   165  MET165      0.2616
    100  O        -18.4920  -38.6480    6.2380 O.2   165  MET165     -0.2715
    101  CB       -21.5790  -39.7230    6.9830 C.3   165  MET165      0.0427
    102  CG       -21.1660  -39.4260    8.3980 C.3   165  MET165      0.0599
    103  SD       -22.3770  -38.4120    9.2310 S.3   165  MET165     -0.1393
    104  CE       -21.6770  -36.8110    8.7460 C.3   165  MET165      0.0692
    105  N        -20.3380  -37.8930    5.1870 N.am  166  GLU166     -0.1963
    106  CA       -19.7850  -36.6290    4.7480 C.3   166  GLU166      0.1733
    107  C        -20.6520  -35.4820    5.1790 C.2   166  GLU166      0.2616
    108  O        -21.8690  -35.5210    5.0010 O.2   166  GLU166     -0.2715
    109  CB       -19.6730  -36.5610    3.2150 C.3   166  GLU166      0.0429
    110  CG       -19.2420  -35.1580    2.7210 C.3   166  GLU166      0.1163
    111  CD       -18.9490  -35.1090    1.2310 C.2   166  GLU166      0.3649
    112  OE1      -19.6380  -34.3230    0.5480 O.co2 166  GLU166     -0.2457
    113  OE2      -18.0540  -35.8490    0.7310 O.co2 166  GLU166     -0.2457
    114  N        -20.0040  -34.4370    5.6860 N.am  167  LEU167     -0.1964
    115  CA       -20.7240  -33.3120    6.2100 C.3   167  LEU167      0.1713
    116  C        -20.9790  -32.3150    5.1130 C.2   167  LEU167      0.2458
    117  O        -20.3690  -32.3980    4.0610 O.2   167  LEU167     -0.2730
    118  CB       -19.9220  -32.6900    7.3490 C.3   167  LEU167      0.0310
    119  CG       -20.0270  -33.5130    8.6440 C.3   167  LEU167      0.0022
    120  CD1      -19.1430  -32.9500    9.7180 C.3   167  LEU167      0.0001
    121  CD2      -21.4600  -33.6230    9.1610 C.3   167  LEU167      0.0001
    122  N        -21.8500  -31.3290    5.3670 N.am  168  PRO168     -0.2727
    123  CA       -22.2170  -30.3360    4.3530 C.3   168  PRO168      0.1402
    124  C        -21.0260  -29.5580    3.7840 C.2   168  PRO168      0.2269
    125  O        -21.0260  -29.2210    2.5850 O.2   168  PRO168     -0.2865
    126  CB       -23.1560  -29.4080    5.1080 C.3   168  PRO168      0.0296
    127  CG       -23.7050  -30.2310    6.1550 C.3   168  PRO168      0.0237
    128  CD       -22.5530  -31.0560    6.6240 C.3   168  PRO168      0.0939
    129  N        -15.2530  -35.1790    6.3290 N.3   172  HIS172     -0.1241
    130  CA       -15.7400  -36.5270    6.6210 C.3   172  HIS172      0.1621
    131  C        -15.8130  -36.8710    8.0940 C.2   172  HIS172      0.2264
    132  O        -15.0530  -36.3370    8.8780 O.2   172  HIS172     -0.2867
    133  CB       -14.9540  -37.4930    5.7630 C.3   172  HIS172      0.0745
    134  CG       -14.8330  -37.0110    4.3460 C.ar  172  HIS172      0.0817
    135  ND1      -15.8900  -37.0400    3.4620 N.ar  172  HIS172     -0.2268
    136  CD2      -13.8330  -36.3610    3.7070 C.ar  172  HIS172      0.1154
    137  CE1      -15.5230  -36.4880    2.3170 C.ar  172  HIS172      0.1986
    138  NE2      -14.2870  -36.0530    2.4470 N.ar  172  HIS172     -0.2212
    139  N        -25.0840  -41.4310   12.7050 N.3   187  ASP187     -0.1225
    140  CA       -25.2580  -41.9530   11.3550 C.3   187  ASP187      0.1805
    141  C        -26.6940  -41.8280   10.9180 C.2   187  ASP187      0.2598
    142  O        -27.4150  -42.8500   10.7820 O.2   187  ASP187     -0.2718
    143  CB       -24.7570  -43.4090   11.1650 C.3   187  ASP187      0.1424
    144  CG       -25.0530  -44.3240   12.3370 C.2   187  ASP187      0.3668
    145  OD1      -25.6330  -43.8830   13.3330 O.co2 187  ASP187     -0.2456
    146  OD2      -24.6840  -45.5210   12.2510 O.co2 187  ASP187     -0.2456
    147  N        -27.1380  -40.5940   10.7090 N.am  188  ILE188     -0.1966
    148  CA       -28.4990  -40.3360   10.2610 C.3   188  ILE188      0.1727
    149  C        -28.4990  -39.2800    9.1650 C.2   188  ILE188      0.2616
    150  O        -27.6320  -38.4070    9.1360 O.2   188  ILE188     -0.2715
    151  CB       -29.3960  -39.8630   11.4190 C.3   188  ILE188      0.0290
    152  CG1      -29.5780  -40.9840   12.4450 C.3   188  ILE188      0.0022
    153  CG2      -30.7430  -39.3930   10.8920 C.3   188  ILE188      0.0023
    154  CD1      -30.1580  -40.5180   13.7620 C.3   188  ILE188      0.0001
    155  N        -29.4740  -39.3560    8.2650 N.am  189  GLN189     -0.1963
    156  CA       -29.5780  -38.3750    7.1950 C.3   189  GLN189      0.1733
    157  C        -30.3270  -37.1580    7.7170 C.2   189  GLN189      0.2617
    158  O        -31.4690  -36.9030    7.3330 O.2   189  GLN189     -0.2715
    159  CB       -30.3050  -38.9680    5.9880 C.3   189  GLN189      0.0408
    160  CG       -29.8430  -38.4130    4.6510 C.3   189  GLN189      0.0908
    161  CD       -29.2640  -39.4820    3.7450 C.2   189  GLN189      0.2608
    162  OE1      -28.0560  -39.7180    3.7380 O.2   189  GLN189     -0.2717
    163  NE2      -30.1250  -40.1350    2.9740 N.am  189  GLN189     -0.0878
    164  N        -29.6720  -36.4120    8.6000 N.am  190  THR190     -0.1937
    165  CA       -30.2700  -35.2280    9.2010 C.3   190  THR190      0.2028
    166  C        -29.2800  -34.0710    9.2690 C.2   190  THR190      0.2642
    167  O        -28.0680  -34.2750    9.3310 O.2   190  THR190     -0.2714
    168  CB       -30.7980  -35.5210   10.6180 C.3   190  THR190      0.1808
    169  OG1      -31.6030  -34.4240   11.0680 O.3   190  THR190     -0.2208
    170  CG2      -29.6420  -35.7270   11.5850 C.3   190  THR190      0.0379
    171  N        -29.8120  -32.8540    9.2600 N.am  191  ALA191     -0.1963
    172  CA       -28.9810  -31.6230    9.3420 C.3   191  ALA191      0.1728
    173  C        -27.8940  -31.7170   10.4510 C.2   191  ALA191      0.2616
    174  O        -28.2000  -31.8880   11.6480 O.2   191  ALA191     -0.2715
    175  CB       -29.8680  -30.3240    9.5010 C.3   191  ALA191      0.0334
    176  N        -26.6310  -31.6150   10.0450 N.am  192  GLN192     -0.1977
    177  CA       -25.5190  -31.8540   10.9710 C.3   192  GLN192      0.1601
    178  C        -24.3720  -31.0060   10.4850 C.2   192  GLN192      0.2287
    179  O        -24.1800  -30.9090    9.2920 O.2   192  GLN192     -0.2864
    180  CB       -25.1330  -33.3340   10.9020 C.3   192  GLN192      0.0394
    181  CG       -24.8080  -33.9750   12.2180 C.3   192  GLN192      0.0908
    182  CD       -24.9520  -35.5190   12.1990 C.2   192  GLN192      0.2608
    183  OE1      -25.4930  -36.1160   11.2480 O.2   192  GLN192     -0.2717
    184  NE2      -24.4890  -36.1550   13.2590 N.am  192  GLN192     -0.0878
@<TRIPOS>BOND
     1    51    50    1
     2    52    50    1
     3    50    49    1
     4    49    46    1
     5    56    55    2
     6    57    54    1
     7    57    58    1
     8    53    54    1
     9    53    47   am
    10    46    47    1
    11    46    45    1
    12    55    54    1
    13    55    61   am
    14    60    58   am
    15    58    59    2
    16     6     5    1
    17    47    48    2
    18     7     5    1
    19     5     2    1
    20    45    36   am
    21    62    61    1
    22    62    63    1
    23    37    36    2
    24    36    35    1
    25    63    64    2
    26    63    65   am
    27     1     2    1
    28     2     3    1
    29     4     3    2
    30    65    66    1
    31    35    34    1
    32    35    38    1
    33     3     8   am
    34    69    66    1
    35    69    70    1
    36    66    67    1
    37     8     9    1
    38   112   111   ar
    39   113   111   ar
    40    38    39    1
    41     9    10    1
    42     9    12    1
    43    11    10    2
    44   111   110    1
    45    40    39   ar
    46    40    42   ar
    47    67    71   am
    48    67    68    2
    49    39    41   ar
    50    12    13    1
    51    71    72    1
    52   137   138   ar
    53   137   135   ar
    54   138   136   ar
    55    42    44   ar
    56   125   124    2
    57   110   109    1
    58    74    73    2
    59    41    43   ar
    60   163   161   am
    61   109   106    1
    62    13    14    1
    63    13    15    1
    64   135   134   ar
    65    72    73    1
    66    72    75    1
    67    44    43   ar
    68   136   134   ar
    69   162   161    2
    70   161   160    1
    71   124   123    1
    72    86    84   ar
    73    86    85   ar
    74    75    76    1
    75    84    82   ar
    76   117   116    2
    77   134   133    1
    78   123   126    1
    79   123   122    1
    80   160   159    1
    81   106   107    1
    82   106   105    1
    83    85    83   ar
    84   108   107    2
    85    31    30    1
    86    31    32    1
    87    24    22   ar
    88    24    25   ar
    89   126   127    1
    90   116   122   am
    91   116   115    1
    92    82    83   ar
    93    82    81    1
    94   107   114   am
    95   105    99   am
    96   122   128    1
    97    30    27    1
    98    22    21   ar
    99    19    18    2
   100   114   115    1
   101   133   130    1
   102    81    78    1
   103    99    98    1
   104    99   100    2
   105   159   156    1
   106    26    27    1
   107    98    97    1
   108    98   101    1
   109    25    23   ar
   110   127   128    1
   111   115   118    1
   112   129   130    1
   113    32    33    1
   114    18    17    1
   115    90    89    2
   116    27    28    1
   117   130   131    1
   118    80    79    2
   119    97    89   am
   120    21    23   ar
   121    21    20    1
   122    89    88    1
   123   101   102    1
   124    79    78    1
   125    79    87   am
   126   156   157    1
   127   156   155    1
   128    78    77    1
   129    28    29    2
   130   158   157    2
   131   118   119    1
   132    20    17    1
   133    87    88    1
   134    88    91    1
   135   157   164   am
   136    17    16    1
   137   131   132    2
   138   155   149   am
   139   102   103    1
   140   164   165    1
   141   119   121    1
   142   119   120    1
   143   104   103    1
   144    91    92    1
   145   150   149    2
   146   149   148    1
   147   165   166    1
   148   165   168    1
   149   171   166   am
   150   171   172    1
   151   166   167    2
   152   179   178    2
   153   172   175    1
   154   172   173    1
   155    92    94   ar
   156    92    93   ar
   157    94    96   ar
   158   176   173   am
   159   176   177    1
   160    93    95   ar
   161   148   147    1
   162   148   151    1
   163   173   174    2
   164   178   177    1
   165    96    95   ar
   166   168   169    1
   167   168   170    1
   168   147   141   am
   169   142   141    2
   170   153   151    1
   171   180   177    1
   172   180   181    1
   173   141   140    1
   174   143   140    1
   175   143   144    1
   176   183   182    2
   177   140   139    1
   178   151   152    1
   179   182   181    1
   180   182   184   am
   181   146   144   ar
   182   144   145   ar
   183   152   154    1
