@<TRIPOS>MOLECULE
tmp/3aw8A00.pdb
 137 130 0 0 0
SMALL
GASTEIGER

@<TRIPOS>ATOM
      1  N         29.1590   24.8710  -33.5030 N.3    97  ARG97      -0.1245
      2  CA        29.9840   23.7160  -33.8550 C.3    97  ARG97       0.1563
      3  C         31.2630   24.0500  -34.6110 C.2    97  ARG97       0.2260
      4  O         32.3200   23.4790  -34.3220 O.2    97  ARG97      -0.2867
      5  CB        29.1730   22.6920  -34.6480 C.3    97  ARG97       0.0307
      6  CG        28.1470   21.9450  -33.8240 C.3    97  ARG97       0.0489
      7  CD        27.6810   20.7010  -34.5630 C.3    97  ARG97       0.2205
      8  NE        26.8510   19.8220  -33.7380 N.pl3  97  ARG97      -0.0865
      9  CZ        25.6090   20.1020  -33.3520 C.cat  97  ARG97       0.5346
     10  NH1       25.0400   21.2450  -33.7170 N.pl3  97  ARG97       0.1354
     11  NH2       24.9350   19.2380  -32.6020 N.pl3  97  ARG97       0.1354
     12  N         37.7700   15.5270  -35.7890 N.3   112  PRO112     -0.2116
     13  CA        37.4070   14.8300  -37.0240 C.3   112  PRO112      0.1372
     14  C         37.5430   15.7940  -38.1970 C.2   112  PRO112      0.2244
     15  O         37.5150   17.0110  -38.0130 O.2   112  PRO112     -0.2868
     16  CB        35.9470   14.4450  -36.7910 C.3   112  PRO112      0.0268
     17  CG        35.8550   14.3260  -35.3080 C.3   112  PRO112      0.0207
     18  CD        36.6550   15.5080  -34.8300 C.3   112  PRO112      0.0892
     19  N         28.7700   13.3180  -41.4400 N.3   135  LEU135     -0.1245
     20  CA        27.6210   13.9860  -40.8470 C.3   135  LEU135      0.1561
     21  C         27.5240   15.4370  -41.2680 C.2   135  LEU135      0.2260
     22  O         28.5310   16.1170  -41.4720 O.2   135  LEU135     -0.2867
     23  CB        27.6740   13.9330  -39.3230 C.3   135  LEU135      0.0270
     24  CG        27.5880   12.5790  -38.6330 C.3   135  LEU135      0.0019
     25  CD1       28.9000   11.8310  -38.8130 C.3   135  LEU135      0.0001
     26  CD2       27.2960   12.7980  -37.1620 C.3   135  LEU135      0.0001
     27  N         25.5470   18.7530  -39.8980 N.3   137  LYS137     -0.1245
     28  CA        24.7350   19.2820  -38.8090 C.3   137  LYS137      0.1561
     29  C         24.7320   20.7980  -38.6880 C.2   137  LYS137      0.2260
     30  O         25.7050   21.4710  -39.0330 O.2   137  LYS137     -0.2867
     31  CB        25.1730   18.6540  -37.4840 C.3   137  LYS137      0.0271
     32  CG        26.6390   18.2650  -37.4320 C.3   137  LYS137      0.0035
     33  CD        26.9320   17.4120  -36.2070 C.3   137  LYS137      0.0206
     34  CE        28.3160   16.8010  -36.2860 C.3   137  LYS137      0.1093
     35  NZ        28.6170   15.9460  -35.1070 N.3   137  LYS137     -0.1314
     36  N         20.6730   17.5850  -37.0410 N.3   142  GLN142     -0.1245
     37  CA        21.7980   16.9290  -37.7090 C.3   142  GLN142      0.1566
     38  C         21.3280   15.6940  -38.4710 C.2   142  GLN142      0.2260
     39  O         20.2140   15.2110  -38.2640 O.2   142  GLN142     -0.2867
     40  CB        22.8790   16.5320  -36.6900 C.3   142  GLN142      0.0367
     41  CG        22.4570   15.4970  -35.6500 C.3   142  GLN142      0.0905
     42  CD        23.5550   15.2140  -34.6330 C.2   142  GLN142      0.2608
     43  OE1       24.6530   14.7850  -34.9890 O.2   142  GLN142     -0.2717
     44  NE2       23.2600   15.4550  -33.3590 N.am  142  GLN142     -0.0878
     45  N         31.0600   17.0350  -41.0460 N.3   166  GLU166     -0.1231
     46  CA        32.0250   16.2960  -40.2400 C.3   166  GLU166      0.1699
     47  C         32.2170   14.8970  -40.7940 C.2   166  GLU166      0.2593
     48  O         31.2500   14.2100  -41.1270 O.2   166  GLU166     -0.2718
     49  CB        31.5610   16.1930  -38.7800 C.3   166  GLU166      0.0402
     50  CG        31.8740   17.4070  -37.9100 C.3   166  GLU166      0.1161
     51  CD        31.5080   17.1930  -36.4430 C.2   166  GLU166      0.3649
     52  OE1       31.9430   16.1740  -35.8560 O.co2 166  GLU166     -0.2457
     53  OE2       30.7930   18.0480  -35.8740 O.co2 166  GLU166     -0.2457
     54  N         33.4720   14.4770  -40.8840 N.am  167  GLY167     -0.1942
     55  CA        33.7540   13.1530  -41.3950 C.3   167  GLY167      0.2014
     56  C         33.4670   12.0880  -40.3580 C.2   167  GLY167      0.2639
     57  O         34.1210   12.0470  -39.3150 O.2   167  GLY167     -0.2714
     58  N         32.4820   11.2360  -40.6380 N.am  168  PHE168     -0.1959
     59  CA        32.1120   10.1510  -39.7300 C.3   168  PHE168      0.1771
     60  C         33.3790    9.5130  -39.1820 C.2   168  PHE168      0.2619
     61  O         34.3440    9.3100  -39.9150 O.2   168  PHE168     -0.2715
     62  CB        31.3020    9.0870  -40.4740 C.3   168  PHE168      0.0574
     63  CG        30.8760    7.9300  -39.6120 C.ar  168  PHE168     -0.0200
     64  CD1       29.6160    7.9150  -39.0150 C.ar  168  PHE168     -0.0042
     65  CD2       31.7380    6.8570  -39.3870 C.ar  168  PHE168     -0.0042
     66  CE1       29.2180    6.8460  -38.2040 C.ar  168  PHE168     -0.0003
     67  CE2       31.3530    5.7840  -38.5790 C.ar  168  PHE168     -0.0003
     68  CZ        30.0880    5.7800  -37.9860 C.ar  168  PHE168     -0.0000
     69  N         33.3850    9.2030  -37.8930 N.am  169  VAL169     -0.1977
     70  CA        34.5580    8.5840  -37.2950 C.3   169  VAL169      0.1596
     71  C         34.2020    7.2740  -36.5930 C.2   169  VAL169      0.2287
     72  O         33.3020    7.2260  -35.7530 O.2   169  VAL169     -0.2864
     73  CB        35.2570    9.5520  -36.3000 C.3   169  VAL169      0.0276
     74  CG1       34.2870    9.9840  -35.2200 C.3   169  VAL169      0.0022
     75  CG2       36.4810    8.8850  -35.6930 C.3   169  VAL169      0.0022
     76  N         34.8030    5.1650  -33.9540 N.3   171  PHE171     -0.1241
     77  CA        35.4730    5.1670  -32.6600 C.3   171  PHE171      0.1605
     78  C         35.2900    3.8790  -31.8640 C.2   171  PHE171      0.2264
     79  O         34.2840    3.1730  -31.9990 O.2   171  PHE171     -0.2867
     80  CB        34.9940    6.3730  -31.8330 C.3   171  PHE171      0.0534
     81  CG        33.5110    6.3850  -31.5720 C.ar  171  PHE171     -0.0203
     82  CD1       32.9620    5.6200  -30.5460 C.ar  171  PHE171     -0.0042
     83  CD2       32.6550    7.1280  -32.3800 C.ar  171  PHE171     -0.0042
     84  CE1       31.5830    5.5940  -30.3300 C.ar  171  PHE171     -0.0003
     85  CE2       31.2730    7.1080  -32.1730 C.ar  171  PHE171     -0.0003
     86  CZ        30.7360    6.3400  -31.1480 C.ar  171  PHE171     -0.0000
     87  N         33.3400    6.4260  -26.7770 N.3   174  GLU174     -0.1245
     88  CA        33.2590    7.8500  -26.5290 C.3   174  GLU174      0.1567
     89  C         33.6830    8.0460  -25.0830 C.2   174  GLU174      0.2260
     90  O         33.3330    7.2510  -24.2130 O.2   174  GLU174     -0.2867
     91  CB        31.8280    8.3510  -26.7430 C.3   174  GLU174      0.0388
     92  CG        31.5030    8.6320  -28.2010 C.3   174  GLU174      0.1160
     93  CD        30.0770    9.0980  -28.4140 C.2   174  GLU174      0.3649
     94  OE1       29.1730    8.2370  -28.5040 O.co2 174  GLU174     -0.2457
     95  OE2       29.8560   10.3290  -28.4840 O.co2 174  GLU174     -0.2457
     96  N         26.0060    6.4230  -25.5260 N.3   197  HIS197     -0.1241
     97  CA        24.7920    7.0860  -25.9480 C.3   197  HIS197      0.1621
     98  C         23.9160    6.1170  -26.7080 C.2   197  HIS197      0.2264
     99  O         24.4000    5.1290  -27.2550 O.2   197  HIS197     -0.2867
    100  CB        25.1360    8.2710  -26.8480 C.3   197  HIS197      0.0745
    101  CG        26.0810    9.2460  -26.2200 C.ar  197  HIS197      0.0817
    102  ND1       25.6740   10.1980  -25.3100 N.ar  197  HIS197     -0.2268
    103  CD2       27.4250    9.3780  -26.3280 C.ar  197  HIS197      0.1154
    104  CE1       26.7270   10.8730  -24.8830 C.ar  197  HIS197      0.1986
    105  NE2       27.8010   10.3950  -25.4850 N.ar  197  HIS197     -0.2212
    106  N         20.6090    9.2060  -29.2330 N.3   200  GLY200     -0.1225
    107  CA        21.0690   10.5710  -29.1080 C.3   200  GLY200      0.1811
    108  C         21.0340   11.0770  -27.6770 C.2   200  GLY200      0.2280
    109  O         21.0870   12.2940  -27.4510 O.2   200  GLY200     -0.2866
    110  N         36.4010   11.3700  -28.9620 N.3   242  PHE242     -0.1241
    111  CA        36.1230   10.0910  -29.5960 C.3   242  PHE242      0.1605
    112  C         37.4390    9.3570  -29.4030 C.2   242  PHE242      0.2264
    113  O         38.5000    9.9420  -29.6290 O.2   242  PHE242     -0.2867
    114  CB        35.8780   10.2490  -31.0940 C.3   242  PHE242      0.0534
    115  CG        34.5340   10.7890  -31.4350 C.ar  242  PHE242     -0.0203
    116  CD1       33.3850   10.1580  -30.9830 C.ar  242  PHE242     -0.0042
    117  CD2       34.4090   11.9180  -32.2340 C.ar  242  PHE242     -0.0042
    118  CE1       32.1220   10.6470  -31.3230 C.ar  242  PHE242     -0.0003
    119  CE2       33.1510   12.4140  -32.5790 C.ar  242  PHE242     -0.0003
    120  CZ        32.0080   11.7760  -32.1220 C.ar  242  PHE242     -0.0000
    121  N         35.2410   16.2250  -29.7250 N.3   251  ASN251     -0.1225
    122  CA        33.8950   16.1730  -30.2890 C.3   251  ASN251      0.1785
    123  C         33.0650   17.3770  -29.8430 C.2   251  ASN251      0.2597
    124  O         32.6010   18.1470  -30.6760 O.2   251  ASN251     -0.2718
    125  CB        33.1920   14.8710  -29.8800 C.3   251  ASN251      0.1169
    126  CG        31.6850   14.9050  -30.1370 C.2   251  ASN251      0.2627
    127  OD1       31.2350   15.2520  -31.2260 O.2   251  ASN251     -0.2716
    128  ND2       30.9030   14.5360  -29.1280 N.am  251  ASN251     -0.0877
    129  N         32.8900   17.5360  -28.5300 N.am  252  GLU252     -0.1979
    130  CA        32.1020   18.6380  -27.9650 C.3   252  GLU252      0.1602
    131  C         32.6600   19.1780  -26.6580 C.2   252  GLU252      0.2287
    132  O         33.3510   18.4740  -25.9220 O.2   252  GLU252     -0.2864
    133  CB        30.6680   18.1920  -27.6720 C.3   252  GLU252      0.0415
    134  CG        29.7180   18.2040  -28.8380 C.3   252  GLU252      0.1163
    135  CD        28.2950   17.8720  -28.4180 C.2   252  GLU252      0.3649
    136  OE1       28.0620   16.7440  -27.9250 O.co2 252  GLU252     -0.2457
    137  OE2       27.4110   18.7420  -28.5790 O.co2 252  GLU252     -0.2457
@<TRIPOS>BOND
     1    22    21    2
     2    19    20    1
     3    55    54    1
     4    55    56    1
     5    21    20    1
     6    48    47    2
     7    45    46    1
     8    54    47   am
     9    20    23    1
    10    47    46    1
    11    58    56   am
    12    58    59    1
    13    62    59    1
    14    62    63    1
    15    56    57    2
    16    46    49    1
    17    61    60    2
    18    27    28    1
    19    59    60    1
    20    63    65   ar
    21    63    64   ar
    22    65    67   ar
    23    23    24    1
    24    60    69   am
    25    30    29    2
    26    64    66   ar
    27    25    24    1
    28    28    29    1
    29    28    31    1
    30    49    50    1
    31    24    26    1
    32    67    68   ar
    33    38    39    2
    34    38    37    1
    35    66    68   ar
    36    14    15    2
    37    14    13    1
    38    50    51    1
    39    69    70    1
    40    37    36    1
    41    37    40    1
    42    31    32    1
    43    32    33    1
    44    70    71    1
    45    70    73    1
    46    13    16    1
    47    13    12    1
    48    16    17    1
    49    40    41    1
    50    71    72    2
    51    51    53   ar
    52    51    52   ar
    53    73    75    1
    54    73    74    1
    55    34    33    1
    56    34    35    1
    57    12    18    1
    58    41    42    1
    59    17    18    1
    60    43    42    2
    61     5     2    1
    62     5     6    1
    63    42    44   am
    64     3     4    2
    65     3     2    1
    66     7     6    1
    67     7     8    1
    68    76    77    1
    69     2     1    1
    70     8     9    2
    71    10     9    1
    72     9    11    1
    73    77    78    1
    74    77    80    1
    75   119   117   ar
    76   119   120   ar
    77    83    85   ar
    78    83    81   ar
    79   117   115   ar
    80    85    86   ar
    81   120   118   ar
    82    79    78    2
    83    80    81    1
    84    81    82   ar
    85   115   114    1
    86   115   116   ar
    87   118   116   ar
    88   127   126    2
    89    86    84   ar
    90   114   111    1
    91   124   123    2
    92    82    84   ar
    93   122   125    1
    94   122   123    1
    95   122   121    1
    96   126   125    1
    97   126   128   am
    98   123   129   am
    99   113   112    2
   100   111   112    1
   101   111   110    1
   102   106   107    1
   103   107   108    1
   104   134   135    1
   105   134   133    1
   106   137   135   ar
   107   129   130    1
   108    94    93   ar
   109    95    93   ar
   110   135   136   ar
   111    93    92    1
   112    92    91    1
   113   130   133    1
   114   130   131    1
   115   108   109    2
   116    99    98    2
   117   100   101    1
   118   100    97    1
   119    87    88    1
   120    91    88    1
   121    98    97    1
   122   131   132    2
   123    88    89    1
   124   103   101   ar
   125   103   105   ar
   126   101   102   ar
   127    97    96    1
   128   105   104   ar
   129   102   104   ar
   130    89    90    2
