@<TRIPOS>MOLECULE
tmp/3aw9A00.pdb
 241 234 0 0 0
SMALL
GASTEIGER

@<TRIPOS>ATOM
      1  N        -36.4130   11.7430  -11.0670 N.3    69  PRO69      -0.2102
      2  CA       -35.0030   12.1700  -11.0760 C.3    69  PRO69       0.1504
      3  C        -34.6340   13.3680  -10.1680 C.2    69  PRO69       0.2576
      4  O        -33.4370   13.6280   -9.9660 O.2    69  PRO69      -0.2718
      5  CB       -34.7620   12.5050  -12.5420 C.3    69  PRO69       0.0282
      6  CG       -36.1380   12.9890  -13.0380 C.3    69  PRO69       0.0208
      7  CD       -37.1710   12.2550  -12.2280 C.3    69  PRO69       0.0893
      8  N        -35.6240   14.0700   -9.6060 N.am   70  GLU70      -0.1966
      9  CA       -35.3810   15.3220   -8.8610 C.3    70  GLU70       0.1733
     10  C        -34.8090   15.1440   -7.4460 C.2    70  GLU70       0.2616
     11  O        -35.5070   14.6680   -6.5430 O.2    70  GLU70      -0.2715
     12  CB       -36.6660   16.1900   -8.8210 C.3    70  GLU70       0.0429
     13  CG       -36.4970   17.5610   -8.1960 C.3    70  GLU70       0.1163
     14  CD       -35.8110   18.5390   -9.0740 C.2    70  GLU70       0.3649
     15  OE1      -36.1040   18.5710  -10.2970 O.co2  70  GLU70      -0.2457
     16  OE2      -35.0610   19.3760   -8.4570 O.co2  70  GLU70      -0.2457
     17  N        -33.5480   15.5520   -7.2570 N.am   71  VAL71      -0.1963
     18  CA       -32.8490   15.4850   -5.9490 C.3    71  VAL71       0.1727
     19  C        -33.4870   16.3980   -4.8810 C.2    71  VAL71       0.2616
     20  O        -33.4020   16.1470   -3.6800 O.2    71  VAL71      -0.2715
     21  CB       -31.3230   15.8320   -6.1070 C.3    71  VAL71       0.0290
     22  CG1      -30.6040   15.8930   -4.7570 C.3    71  VAL71       0.0023
     23  CG2      -30.6210   14.8360   -7.0280 C.3    71  VAL71       0.0023
     24  N        -34.1340   17.4600   -5.3300 N.am   72  ARG72      -0.1977
     25  CA       -34.5860   18.4910   -4.4330 C.3    72  ARG72       0.1597
     26  C        -35.8500   18.0850   -3.6770 C.2    72  ARG72       0.2287
     27  O        -35.9670   18.3170   -2.4690 O.2    72  ARG72      -0.2864
     28  CB       -34.8260   19.7510   -5.2410 C.3    72  ARG72       0.0334
     29  CG       -34.5480   21.0130   -4.4910 C.3    72  ARG72       0.0492
     30  CD       -35.0750   22.1820   -5.2800 C.3    72  ARG72       0.2205
     31  NE       -34.6560   22.0970   -6.6760 N.pl3  72  ARG72      -0.0865
     32  CZ       -34.7010   23.1080   -7.5320 C.cat  72  ARG72       0.5346
     33  NH1      -35.1450   24.2990   -7.1300 N.pl3  72  ARG72       0.1354
     34  NH2      -34.2880   22.9250   -8.7820 N.pl3  72  ARG72       0.1354
     35  N        -26.5860    6.5600  -10.5080 N.3   107  SER107     -0.1202
     36  CA       -26.3040    7.9840  -10.4320 C.3   107  SER107      0.2020
     37  C        -25.0810    8.2380   -9.5910 C.2   107  SER107      0.2619
     38  O        -24.8020    7.4920   -8.6580 O.2   107  SER107     -0.2717
     39  CB       -27.5000    8.7420   -9.8230 C.3   107  SER107      0.2103
     40  OG       -27.1530   10.0460   -9.3490 O.3   107  SER107     -0.2182
     41  N        -24.3790    9.3190   -9.9320 N.am  108  SER108     -0.1937
     42  CA       -23.2130    9.7950   -9.1990 C.3   108  SER108      0.2055
     43  C        -23.5450   10.1850   -7.7560 C.2   108  SER108      0.2643
     44  O        -22.6570   10.2620   -6.9130 O.2   108  SER108     -0.2714
     45  CB       -22.6370   11.0310   -9.9230 C.3   108  SER108      0.2130
     46  OG       -23.5750   12.1000   -9.8020 O.3   108  SER108     -0.2179
     47  N        -24.8220   10.4530   -7.4700 N.am  109  THR109     -0.1950
     48  CA       -25.2250   10.8270   -6.1090 C.3   109  THR109      0.1897
     49  C        -25.0520    9.7110   -5.0670 C.2   109  THR109      0.2313
     50  O        -25.0890    9.9650   -3.8470 O.2   109  THR109     -0.2863
     51  CB       -26.6750   11.3520   -6.0590 C.3   109  THR109      0.1794
     52  OG1      -27.5790   10.3650   -6.5960 O.3   109  THR109     -0.2208
     53  CG2      -26.7990   12.6550   -6.8400 C.3   109  THR109      0.0378
     54  N        -32.6730   10.6200   -2.6130 N.3   131  TYR131     -0.1241
     55  CA       -32.5010   10.1220   -3.9700 C.3   131  TYR131      0.1605
     56  C        -31.2100    9.2770   -4.1560 C.2   131  TYR131      0.2264
     57  O        -31.2440    8.1990   -4.7660 O.2   131  TYR131     -0.2867
     58  CB       -32.5370   11.3140   -4.9390 C.3   131  TYR131      0.0534
     59  CG       -32.2040   10.9820   -6.3740 C.ar  131  TYR131     -0.0201
     60  CD1      -33.1600   10.4070   -7.2380 C.ar  131  TYR131     -0.0009
     61  CD2      -30.9300   11.2330   -6.8750 C.ar  131  TYR131     -0.0009
     62  CE1      -32.8360   10.1160   -8.5920 C.ar  131  TYR131      0.0417
     63  CE2      -30.6070   10.9520   -8.1970 C.ar  131  TYR131      0.0417
     64  CZ       -31.5500   10.3960   -9.0450 C.ar  131  TYR131      0.1957
     65  OH       -31.1700   10.1480  -10.3440 O.3   131  TYR131     -0.2866
     66  N        -24.6190    7.2480  -13.7910 N.3   158  TYR158     -0.1227
     67  CA       -24.5960    8.4520  -14.6230 C.3   158  TYR158      0.1736
     68  C        -24.2860    9.7290  -13.8410 C.2   158  TYR158      0.2595
     69  O        -24.9150   10.0120  -12.8070 O.2   158  TYR158     -0.2718
     70  CB       -25.9350    8.6640  -15.3060 C.3   158  TYR158      0.0548
     71  CG       -26.3300    7.6000  -16.2920 C.ar  158  TYR158     -0.0200
     72  CD1      -27.2120    6.5850  -15.9310 C.ar  158  TYR158     -0.0009
     73  CD2      -25.8310    7.6140  -17.6050 C.ar  158  TYR158     -0.0009
     74  CE1      -27.5950    5.6250  -16.8400 C.ar  158  TYR158      0.0417
     75  CE2      -26.2030    6.6530  -18.5100 C.ar  158  TYR158      0.0417
     76  CZ       -27.0800    5.6600  -18.1220 C.ar  158  TYR158      0.1957
     77  OH       -27.4490    4.6890  -19.0250 O.3   158  TYR158     -0.2866
     78  N        -23.3480   10.5140  -14.3820 N.am  159  ALA159     -0.1966
     79  CA       -23.1770   11.9140  -14.0320 C.3   159  ALA159      0.1728
     80  C        -24.3010   12.6500  -14.7800 C.2   159  ALA159      0.2616
     81  O        -25.2650   12.0090  -15.2000 O.2   159  ALA159     -0.2715
     82  CB       -21.7880   12.3940  -14.4480 C.3   159  ALA159      0.0334
     83  N        -24.2380   13.9630  -14.9660 N.am  160  ASN160     -0.1972
     84  CA       -25.3640   14.5910  -15.6420 C.3   160  ASN160      0.1688
     85  C        -25.3620   14.2410  -17.1110 C.2   160  ASN160      0.2292
     86  O        -24.3150   14.2330  -17.7500 O.2   160  ASN160     -0.2864
     87  CB       -25.3490   16.1030  -15.4690 C.3   160  ASN160      0.1181
     88  CG       -25.4050   16.5090  -14.0270 C.2   160  ASN160      0.2629
     89  OD1      -26.4760   16.5890  -13.4500 O.2   160  ASN160     -0.2716
     90  ND2      -24.2400   16.7600  -13.4310 N.am  160  ASN160     -0.0877
     91  N        -35.6270   18.4160  -16.9620 N.3   168  HIS168     -0.1226
     92  CA       -35.2870   18.6600  -15.5800 C.3   168  HIS168      0.1752
     93  C        -33.8300   19.0940  -15.5470 C.2   168  HIS168      0.2597
     94  O        -33.1250   18.9520  -16.5380 O.2   168  HIS168     -0.2718
     95  CB       -35.5520   17.4080  -14.7040 C.3   168  HIS168      0.0759
     96  CG       -34.6800   16.2390  -15.0360 C.ar  168  HIS168      0.0818
     97  ND1      -33.4820   16.0010  -14.3930 N.ar  168  HIS168     -0.2268
     98  CD2      -34.8200   15.2480  -15.9510 C.ar  168  HIS168      0.1154
     99  CE1      -32.9120   14.9270  -14.9120 C.ar  168  HIS168      0.1986
    100  NE2      -33.7000   14.4530  -15.8600 N.ar  168  HIS168     -0.2212
    101  N        -33.3820   19.6280  -14.4210 N.am  169  GLY169     -0.1942
    102  CA       -31.9870   20.0040  -14.2850 C.3   169  GLY169      0.2014
    103  C        -31.7390   21.4870  -14.5340 C.2   169  GLY169      0.2638
    104  O        -32.6380   22.2270  -14.9370 O.2   169  GLY169     -0.2714
    105  N        -30.4870   21.8880  -14.3240 N.am  170  VAL170     -0.1977
    106  CA       -30.0960   23.2960  -14.2250 C.3   170  VAL170      0.1596
    107  C        -30.3230   24.0580  -15.5460 C.2   170  VAL170      0.2287
    108  O        -30.8560   25.1880  -15.5420 O.2   170  VAL170     -0.2864
    109  CB       -28.6530   23.4210  -13.6260 C.3   170  VAL170      0.0276
    110  CG1      -27.5920   22.7300  -14.4890 C.3   170  VAL170      0.0022
    111  CG2      -28.2810   24.8670  -13.3480 C.3   170  VAL170      0.0022
    112  N        -33.9710   24.4780  -16.0270 N.3   173  ASP173     -0.1225
    113  CA       -34.4600   25.4870  -15.0670 C.3   173  ASP173      0.1805
    114  C        -34.0130   26.9050  -15.4450 C.2   173  ASP173      0.2597
    115  O        -34.8230   27.8330  -15.4240 O.2   173  ASP173     -0.2718
    116  CB       -33.9990   25.1730  -13.6410 C.3   173  ASP173      0.1424
    117  CG       -34.5680   23.8540  -13.1000 C.2   173  ASP173      0.3668
    118  OD1      -35.5840   23.3560  -13.6160 O.co2 173  ASP173     -0.2456
    119  OD2      -33.9800   23.3150  -12.1430 O.co2 173  ASP173     -0.2456
    120  N        -32.7310   27.0670  -15.7920 N.am  174  PHE174     -0.1976
    121  CA       -32.2080   28.3870  -16.1690 C.3   174  PHE174      0.1639
    122  C        -32.9750   28.9800  -17.3520 C.2   174  PHE174      0.2290
    123  O        -33.3550   30.1450  -17.3020 O.2   174  PHE174     -0.2864
    124  CB       -30.6960   28.3790  -16.4320 C.3   174  PHE174      0.0560
    125  CG       -29.8540   28.3480  -15.1820 C.ar  174  PHE174     -0.0200
    126  CD1      -30.4310   28.4760  -13.9170 C.ar  174  PHE174     -0.0042
    127  CD2      -28.4800   28.2190  -15.2730 C.ar  174  PHE174     -0.0042
    128  CE1      -29.6420   28.4530  -12.7670 C.ar  174  PHE174     -0.0003
    129  CE2      -27.6830   28.1810  -14.1350 C.ar  174  PHE174     -0.0003
    130  CZ       -28.2640   28.3020  -12.8800 C.ar  174  PHE174     -0.0000
    131  N        -36.5140   29.9770  -16.4420 N.3   177  LYS177     -0.1245
    132  CA       -36.4430   31.1880  -15.6120 C.3   177  LYS177      0.1561
    133  C        -36.3410   32.4560  -16.4520 C.2   177  LYS177      0.2260
    134  O        -37.0970   33.4080  -16.2470 O.2   177  LYS177     -0.2867
    135  CB       -35.2520   31.1230  -14.6490 C.3   177  LYS177      0.0271
    136  CG       -35.4890   30.2890  -13.3830 C.3   177  LYS177      0.0035
    137  CD       -34.2600   30.2880  -12.4780 C.3   177  LYS177      0.0206
    138  CE       -34.3090   29.1340  -11.4850 C.3   177  LYS177      0.1093
    139  NZ       -35.4040   29.3340  -10.4870 N.3   177  LYS177     -0.1314
    140  N        -32.0710   33.8300  -10.9100 N.3   186  GLU186     -0.1231
    141  CA       -31.7800   33.2880   -9.5740 C.3   186  GLU186      0.1699
    142  C        -30.9700   32.0110   -9.6790 C.2   186  GLU186      0.2592
    143  O        -31.3400   31.0940  -10.3980 O.2   186  GLU186     -0.2718
    144  CB       -33.0520   33.0700   -8.7620 C.3   186  GLU186      0.0402
    145  CG       -33.7470   34.3720   -8.4290 C.3   186  GLU186      0.1161
    146  CD       -34.8260   34.2280   -7.3910 C.2   186  GLU186      0.3649
    147  OE1      -35.2130   33.0760   -7.0510 O.co2 186  GLU186     -0.2457
    148  OE2      -35.2970   35.2870   -6.9150 O.co2 186  GLU186     -0.2457
    149  N        -29.8330   31.9970   -8.9950 N.am  187  VAL187     -0.1966
    150  CA       -28.9480   30.8510   -8.9790 C.3   187  VAL187      0.1727
    151  C        -28.8200   30.3630   -7.5220 C.2   187  VAL187      0.2616
    152  O        -28.3920   31.1170   -6.6420 O.2   187  VAL187     -0.2715
    153  CB       -27.5530   31.1890   -9.5800 C.3   187  VAL187      0.0290
    154  CG1      -26.5850   30.0190   -9.4170 C.3   187  VAL187      0.0023
    155  CG2      -27.6690   31.5810  -11.0600 C.3   187  VAL187      0.0023
    156  N        -29.2150   29.1100   -7.2840 N.am  188  LEU188     -0.1977
    157  CA       -29.1390   28.4950   -5.9550 C.3   188  LEU188      0.1596
    158  C        -27.7110   28.1310   -5.6110 C.2   188  LEU188      0.2287
    159  O        -26.9610   27.6840   -6.4670 O.2   188  LEU188     -0.2864
    160  CB       -30.0190   27.2480   -5.8830 C.3   188  LEU188      0.0297
    161  CG       -31.5140   27.4000   -6.1430 C.3   188  LEU188      0.0022
    162  CD1      -32.1930   26.1090   -5.7800 C.3   188  LEU188      0.0001
    163  CD2      -32.1130   28.5390   -5.3570 C.3   188  LEU188      0.0001
    164  N        -20.4210   25.6530   -7.3780 N.3   193  GLN193     -0.1245
    165  CA       -20.6100   24.2160   -7.6090 C.3   193  GLN193      0.1566
    166  C        -20.2640   23.8020   -9.0450 C.2   193  GLN193      0.2260
    167  O        -20.5590   24.5200   -9.9970 O.2   193  GLN193     -0.2867
    168  CB       -21.9970   23.7300   -7.1570 C.3   193  GLN193      0.0367
    169  CG       -23.1610   24.5510   -7.6240 C.3   193  GLN193      0.0905
    170  CD       -23.5220   25.7130   -6.6970 C.2   193  GLN193      0.2608
    171  OE1      -22.7930   26.6850   -6.5990 O.2   193  GLN193     -0.2717
    172  NE2      -24.6770   25.6250   -6.0600 N.am  193  GLN193     -0.0878
    173  N        -19.7170   20.5400  -11.9370 N.3   195  LYS195     -0.1245
    174  CA       -20.2000   19.2090  -12.3300 C.3   195  LYS195      0.1561
    175  C        -19.9890   18.8990  -13.8070 C.2   195  LYS195      0.2260
    176  O        -20.0270   19.8010  -14.6400 O.2   195  LYS195     -0.2867
    177  CB       -21.6870   19.0630  -11.9720 C.3   195  LYS195      0.0271
    178  CG       -21.9940   19.4710  -10.5500 C.3   195  LYS195      0.0035
    179  CD       -23.0960   18.6830   -9.9430 C.3   195  LYS195      0.0206
    180  CE       -23.1600   18.9910   -8.4620 C.3   195  LYS195      0.1093
    181  NZ       -24.5530   18.9230   -7.9510 N.3   195  LYS195     -0.1314
    182  N        -20.9740   17.1700  -17.5000 N.3   197  TYR197     -0.1241
    183  CA       -22.1700   17.0750  -18.3200 C.3   197  TYR197      0.1605
    184  C        -21.8400   16.3130  -19.5820 C.2   197  TYR197      0.2264
    185  O        -20.9670   16.7090  -20.3670 O.2   197  TYR197     -0.2867
    186  CB       -22.7190   18.4680  -18.6550 C.3   197  TYR197      0.0534
    187  CG       -23.2350   19.1620  -17.4220 C.ar  197  TYR197     -0.0201
    188  CD1      -24.6040   19.1950  -17.1340 C.ar  197  TYR197     -0.0009
    189  CD2      -22.3510   19.7460  -16.5130 C.ar  197  TYR197     -0.0009
    190  CE1      -25.0730   19.8030  -15.9800 C.ar  197  TYR197      0.0417
    191  CE2      -22.8110   20.3510  -15.3460 C.ar  197  TYR197      0.0417
    192  CZ       -24.1630   20.3800  -15.0860 C.ar  197  TYR197      0.1957
    193  OH       -24.6000   20.9950  -13.9330 O.3   197  TYR197     -0.2866
    194  N        -21.5510   26.2730  -12.0450 N.3   234  VAL234     -0.1245
    195  CA       -22.9310   26.7170  -12.2650 C.3   234  VAL234      0.1561
    196  C        -23.0180   28.1230  -12.8790 C.2   234  VAL234      0.2260
    197  O        -23.8770   28.3830  -13.7380 O.2   234  VAL234     -0.2867
    198  CB       -23.7950   26.6150  -10.9880 C.3   234  VAL234      0.0252
    199  CG1      -25.2520   26.9160  -11.3070 C.3   234  VAL234      0.0019
    200  CG2      -23.7260   25.2180  -10.4710 C.3   234  VAL234      0.0019
    201  N        -26.9930   24.5580   -3.0520 N.3   262  GLY262     -0.1210
    202  CA       -28.2850   25.0720   -3.4570 C.3   262  GLY262      0.1956
    203  C        -29.4560   24.6190   -2.5970 C.2   262  GLY262      0.2611
    204  O        -30.4940   25.2840   -2.5420 O.2   262  GLY262     -0.2717
    205  N        -29.2950   23.4820   -1.9310 N.am  263  TRP263     -0.1976
    206  CA       -30.3390   22.9040   -1.0750 C.3   263  TRP263      0.1640
    207  C        -29.6790   21.8230   -0.2230 C.2   263  TRP263      0.2290
    208  O        -28.5760   21.4060   -0.5580 O.2   263  TRP263     -0.2864
    209  CB       -31.4980   22.3310   -1.9190 C.3   263  TRP263      0.0576
    210  CG       -31.0810   21.3440   -2.9980 C.ar  263  TRP263      0.0006
    211  CD1      -30.6940   20.0450   -2.8180 C.ar  263  TRP263      0.0946
    212  CD2      -31.0220   21.5840   -4.4130 C.ar  263  TRP263      0.0152
    213  NE1      -30.4000   19.4670   -4.0240 N.ar  263  TRP263     -0.2442
    214  CE2      -30.5920   20.3810   -5.0210 C.ar  263  TRP263      0.0810
    215  CE3      -31.3070   22.6920   -5.2270 C.ar  263  TRP263      0.0012
    216  CZ2      -30.4330   20.2510   -6.4090 C.ar  263  TRP263      0.0191
    217  CZ3      -31.1480   22.5690   -6.6110 C.ar  263  TRP263      0.0001
    218  CH2      -30.7120   21.3530   -7.1900 C.ar  263  TRP263      0.0015
    219  N        -27.5930   18.7060   -1.8160 N.3   266  ASP266     -0.1225
    220  CA       -26.9940   19.0440   -3.1060 C.3   266  ASP266      0.1805
    221  C        -25.4860   18.8240   -3.0210 C.2   266  ASP266      0.2597
    222  O        -24.8090   19.4400   -2.2050 O.2   266  ASP266     -0.2718
    223  CB       -27.3160   20.4980   -3.4660 C.3   266  ASP266      0.1424
    224  CG       -26.5380   21.0080   -4.6840 C.2   266  ASP266      0.3668
    225  OD1      -26.4230   20.2730   -5.6840 O.co2 266  ASP266     -0.2456
    226  OD2      -26.0470   22.1620   -4.6300 O.co2 266  ASP266     -0.2456
    227  N        -24.9680   17.9040   -3.8280 N.am  267  VAL267     -0.1980
    228  CA       -23.5200   17.7000   -3.9180 C.3   267  VAL267      0.1595
    229  C        -22.9390   18.8930   -4.6810 C.2   267  VAL267      0.2287
    230  O        -23.3850   19.2080   -5.7820 O.2   267  VAL267     -0.2864
    231  CB       -23.1580   16.3440   -4.6250 C.3   267  VAL267      0.0276
    232  CG1      -21.6510   16.2050   -4.8250 C.3   267  VAL267      0.0022
    233  CG2      -23.6770   15.1400   -3.8270 C.3   267  VAL267      0.0022
    234  N        -18.5500   17.4150   -8.3950 N.3   270  MET270     -0.1245
    235  CA       -18.6720   16.0620   -8.8930 C.3   270  MET270      0.1570
    236  C        -18.0430   15.9200  -10.2750 C.2   270  MET270      0.2261
    237  O        -18.3510   16.6780  -11.2040 O.2   270  MET270     -0.2867
    238  CB       -20.1620   15.6070   -8.9200 C.3   270  MET270      0.0387
    239  CG       -20.4440   14.3450   -9.7830 C.3   270  MET270      0.0595
    240  SD       -20.7890   14.6890  -11.5420 S.3   270  MET270     -0.1393
    241  CE       -22.6030   14.7180  -11.5180 C.3   270  MET270      0.0692
@<TRIPOS>BOND
     1   185   184    2
     2   184   183    1
     3    77    76    1
     4   186   183    1
     5   186   187    1
     6    75    76   ar
     7    75    73   ar
     8   183   182    1
     9    76    74   ar
    10    86    85    2
    11    73    71   ar
    12   187   188   ar
    13   187   189   ar
    14   122   123    2
    15   122   121    1
    16   188   190   ar
    17    85    84    1
    18    91    92    1
    19    74    72   ar
    20    94    93    2
    21   189   191   ar
    22   133   134    2
    23   133   132    1
    24   131   132    1
    25   124   121    1
    26   124   125    1
    27    71    72   ar
    28    71    70    1
    29   121   120    1
    30   112   113    1
    31   190   192   ar
    32    98   100   ar
    33    98    96   ar
    34   100    99   ar
    35   120   114   am
    36    84    87    1
    37    84    83    1
    38   132   135    1
    39    92    93    1
    40    92    95    1
    41    93   101   am
    42   107   108    2
    43   107   106    1
    44    87    88    1
    45   114   115    2
    46   114   113    1
    47   191   192   ar
    48    70    67    1
    49   127   125   ar
    50   127   129   ar
    51    81    80    2
    52   125   126   ar
    53   192   193    1
    54   113   116    1
    55    96    95    1
    56    96    97   ar
    57    83    80   am
    58   104   103    2
    59    99    97   ar
    60    80    79    1
    61   135   136    1
    62   176   175    2
    63    67    68    1
    64    67    66    1
    65   103   105   am
    66   103   102    1
    67   110   109    1
    68    82    79    1
    69   101   102    1
    70    78    79    1
    71    78    68   am
    72   105   106    1
    73   106   109    1
    74   129   130   ar
    75    88    89    2
    76    88    90   am
    77   126   128   ar
    78    68    69    2
    79   175   174    1
    80   197   196    2
    81   116   117    1
    82   109   111    1
    83   118   117   ar
    84   136   137    1
    85   117   119   ar
    86     6     5    1
    87     6     7    1
    88   130   128   ar
    89   196   195    1
    90     5     2    1
    91   137   138    1
    92   174   177    1
    93   174   173    1
    94   195   194    1
    95   195   198    1
    96     7     1    1
    97   177   178    1
    98   240   241    1
    99   240   239    1
   100   138   139    1
   101   199   198    1
   102   237   236    2
   103     2     1    1
   104     2     3    1
   105   155   153    1
   106   198   200    1
   107   140   141    1
   108   178   179    1
   109    35    36    1
   110    36    39    1
   111    36    37    1
   112   143   142    2
   113    65    64    1
   114    15    14   ar
   115   236   235    1
   116     3     4    2
   117     3     8   am
   118   167   166    2
   119   179   180    1
   120    41    37   am
   121    41    42    1
   122    45    46    1
   123    45    42    1
   124    39    40    1
   125   239   238    1
   126   142   141    1
   127   142   149   am
   128     8     9    1
   129    37    38    2
   130   153   154    1
   131   153   150    1
   132   141   144    1
   133    42    43    1
   134    14    16   ar
   135    14    13    1
   136   166   165    1
   137    64    62   ar
   138    64    63   ar
   139   149   150    1
   140   150   151    1
   141   238   235    1
   142   235   234    1
   143     9    12    1
   144     9    10    1
   145    12    13    1
   146    34    32    1
   147   144   145    1
   148    62    60   ar
   149   180   181    1
   150   145   146    1
   151    63    61   ar
   152    43    47   am
   153    43    44    2
   154   169   168    1
   155   169   170    1
   156   165   164    1
   157   165   168    1
   158    32    33    1
   159    32    31    2
   160   151   156   am
   161   151   152    2
   162    47    48    1
   163    10    17   am
   164    10    11    2
   165   146   147   ar
   166   146   148   ar
   167   156   157    1
   168    17    18    1
   169    60    59   ar
   170   218   217   ar
   171   218   216   ar
   172    23    21    1
   173    61    59   ar
   174    53    51    1
   175   170   171    2
   176   170   172   am
   177    31    30    1
   178   217   215   ar
   179    52    51    1
   180   159   158    2
   181   216   214   ar
   182    59    58    1
   183   161   160    1
   184   161   162    1
   185   161   163    1
   186    48    51    1
   187    48    49    1
   188    21    18    1
   189    21    22    1
   190   157   160    1
   191   157   158    1
   192    18    19    1
   193   230   229    2
   194   225   224   ar
   195    24    19   am
   196    24    25    1
   197    30    29    1
   198    28    29    1
   199    28    25    1
   200   215   212   ar
   201    49    50    2
   202   214   212   ar
   203   214   213   ar
   204    58    55    1
   205    19    20    2
   206   232   231    1
   207    57    56    2
   208   224   226   ar
   209   224   223    1
   210   229   228    1
   211   231   228    1
   212   231   233    1
   213    25    26    1
   214   212   210   ar
   215    56    55    1
   216   213   211   ar
   217    55    54    1
   218   228   227    1
   219   227   221   am
   220    26    27    2
   221   223   220    1
   222   202   201    1
   223   202   203    1
   224   220   221    1
   225   220   219    1
   226   221   222    2
   227   210   211   ar
   228   210   209    1
   229   203   204    2
   230   203   205   am
   231   205   206    1
   232   209   206    1
   233   206   207    1
   234   208   207    2
