@<TRIPOS>MOLECULE
tmp/3awjA00.pdb
 204 196 0 0 0
SMALL
GASTEIGER

@<TRIPOS>ATOM
      1  N          7.5360   56.2730   59.2980 N.3    46  LYS46      -0.1245
      2  CA         6.4430   56.7900   58.4700 C.3    46  LYS46       0.1561
      3  C          5.3850   55.7150   58.2390 C.2    46  LYS46       0.2260
      4  O          4.1980   55.9880   58.3410 O.2    46  LYS46      -0.2867
      5  CB         6.9740   57.3010   57.1290 C.3    46  LYS46       0.0271
      6  CG         7.8830   58.5180   57.2470 C.3    46  LYS46       0.0035
      7  CD         8.5510   58.8670   55.9270 C.3    46  LYS46       0.0206
      8  CE         9.5510   59.9930   56.1120 C.3    46  LYS46       0.1093
      9  NZ        10.4070   60.1890   54.9080 N.3    46  LYS46      -0.1314
     10  N          3.5570   54.9780   61.5630 N.3    49  ARG49      -0.1231
     11  CA         2.5870   56.0600   61.7840 C.3    49  ARG49       0.1694
     12  C          1.3020   55.8260   60.9760 C.2    49  ARG49       0.2591
     13  O          0.2050   55.9730   61.5080 O.2    49  ARG49      -0.2718
     14  CB         3.2130   57.3980   61.3860 C.3    49  ARG49       0.0321
     15  CG         3.1010   58.5030   62.4240 C.3    49  ARG49       0.0489
     16  CD         4.3960   59.3260   62.5010 C.3    49  ARG49       0.2205
     17  NE         4.7690   59.9320   61.2190 N.pl3  49  ARG49      -0.0865
     18  CZ         6.0180   60.0500   60.7660 C.cat  49  ARG49       0.5346
     19  NH1        7.0450   59.6060   61.4830 N.pl3  49  ARG49       0.1354
     20  NH2        6.2400   60.5970   59.5760 N.pl3  49  ARG49       0.1354
     21  N          1.4590   55.4110   59.7150 N.am   50  ILE50      -0.1980
     22  CA         0.3350   55.1180   58.8140 C.3    50  ILE50       0.1595
     23  C         -0.4220   53.8660   59.2950 C.2    50  ILE50       0.2287
     24  O         -1.6510   53.8570   59.2980 O.2    50  ILE50      -0.2864
     25  CB         0.8090   54.9500   57.3320 C.3    50  ILE50       0.0276
     26  CG1        1.4410   56.2570   56.8330 C.3    50  ILE50       0.0022
     27  CG2       -0.3840   54.6260   56.4090 C.3    50  ILE50       0.0022
     28  CD1        2.2870   56.1140   55.5620 C.3    50  ILE50       0.0001
     29  N         -2.4700   54.5900   62.4730 N.3    53  LYS53      -0.1231
     30  CA        -3.6560   55.3830   62.1580 C.3    53  LYS53       0.1693
     31  C         -4.5660   54.7470   61.1050 C.2    53  LYS53       0.2592
     32  O         -5.5870   55.3300   60.7540 O.2    53  LYS53      -0.2718
     33  CB        -3.2430   56.7890   61.7090 C.3    53  LYS53       0.0285
     34  CG        -2.7050   57.6560   62.8340 C.3    53  LYS53       0.0035
     35  CD        -2.2730   59.0260   62.3370 C.3    53  LYS53       0.0206
     36  CE        -1.7490   59.8750   63.4960 C.3    53  LYS53       0.1093
     37  NZ        -1.2430   61.2000   63.0470 N.3    53  LYS53      -0.1314
     38  N         -4.2270   53.5320   60.6600 N.am   54  SER54      -0.1952
     39  CA        -4.9960   52.8090   59.6350 C.3    54  SER54       0.1924
     40  C         -6.3420   52.2450   60.0700 C.2    54  SER54       0.2314
     41  O         -7.1350   51.8210   59.2260 O.2    54  SER54      -0.2863
     42  CB        -4.1670   51.6770   59.0290 C.3    54  SER54       0.2116
     43  OG        -3.9230   50.6470   59.9700 O.3    54  SER54      -0.2180
     44  N          5.3230   56.8160   48.3090 N.3   196  LEU196     -0.1231
     45  CA         4.6420   57.0090   49.5930 C.3   196  LEU196      0.1693
     46  C          3.1910   56.5430   49.5600 C.2   196  LEU196      0.2592
     47  O          2.6510   56.1020   50.5750 O.2   196  LEU196     -0.2718
     48  CB         4.7520   58.4670   50.0600 C.3   196  LEU196      0.0284
     49  CG         5.4340   58.7290   51.4170 C.3   196  LEU196      0.0019
     50  CD1        4.5160   58.3910   52.5940 C.3   196  LEU196      0.0001
     51  CD2        6.7650   57.9820   51.5210 C.3   196  LEU196      0.0001
     52  N          2.5870   56.6080   48.3750 N.am  197  ASP197     -0.1974
     53  CA         1.2190   56.1330   48.1630 C.3   197  ASP197      0.1709
     54  C          1.2090   54.5990   48.1640 C.2   197  ASP197      0.2293
     55  O          0.1660   53.9720   48.3560 O.2   197  ASP197     -0.2864
     56  CB         0.5930   56.7110   46.8780 C.3   197  ASP197      0.1436
     57  CG         1.5700   56.8240   45.7030 C.2   197  ASP197      0.3671
     58  OD1        2.7990   56.9290   45.8980 O.co2 197  ASP197     -0.2456
     59  OD2        1.0880   56.8550   44.5560 O.co2 197  ASP197     -0.2456
     60  N          0.8200   53.4400   51.8420 N.3   200  VAL200     -0.1245
     61  CA        -0.5870   53.5060   52.2390 C.3   200  VAL200      0.1561
     62  C         -1.2690   52.1900   51.8480 C.2   200  VAL200      0.2260
     63  O         -1.9080   51.5480   52.6860 O.2   200  VAL200     -0.2867
     64  CB        -1.2860   54.7130   51.5660 C.3   200  VAL200      0.0252
     65  CG1       -2.7530   54.7880   51.9560 C.3   200  VAL200      0.0019
     66  CG2       -0.5800   56.0040   51.9680 C.3   200  VAL200      0.0019
     67  N         -2.8930   49.1750   54.2220 N.3   204  LEU204     -0.1231
     68  CA        -4.3150   48.8970   54.1050 C.3   204  LEU204      0.1693
     69  C         -4.7770   47.5730   53.5140 C.2   204  LEU204      0.2592
     70  O         -5.6480   46.9290   54.0890 O.2   204  LEU204     -0.2718
     71  CB        -5.0280   50.0440   53.3890 C.3   204  LEU204      0.0284
     72  CG        -4.9210   51.4690   53.9490 C.3   204  LEU204      0.0019
     73  CD1       -5.5370   52.4300   52.9460 C.3   204  LEU204      0.0001
     74  CD2       -5.5800   51.5910   55.3110 C.3   204  LEU204      0.0001
     75  N         -4.1970   47.1670   52.3870 N.am  205  PHE205     -0.1976
     76  CA        -4.6120   45.9410   51.6980 C.3   205  PHE205      0.1639
     77  C         -4.4380   44.5910   52.3970 C.2   205  PHE205      0.2290
     78  O         -3.3350   44.2180   52.8100 O.2   205  PHE205     -0.2864
     79  CB        -4.0360   45.8910   50.2740 C.3   205  PHE205      0.0560
     80  CG        -4.5310   47.0000   49.3640 C.ar  205  PHE205     -0.0200
     81  CD1       -5.8940   47.3620   49.3220 C.ar  205  PHE205     -0.0042
     82  CD2       -3.6270   47.6880   48.5360 C.ar  205  PHE205     -0.0042
     83  CE1       -6.3520   48.4020   48.4640 C.ar  205  PHE205     -0.0003
     84  CE2       -4.0650   48.7310   47.6710 C.ar  205  PHE205     -0.0003
     85  CZ        -5.4310   49.0880   47.6380 C.ar  205  PHE205     -0.0000
     86  N         -7.2040   57.4000   41.8300 N.3   244  ILE244     -0.1245
     87  CA        -6.8820   56.0040   42.1460 C.3   244  ILE244      0.1561
     88  C         -6.5500   55.3220   40.8140 C.2   244  ILE244      0.2260
     89  O         -7.4310   55.0740   39.9920 O.2   244  ILE244     -0.2867
     90  CB        -8.0480   55.2300   42.8690 C.3   244  ILE244      0.0252
     91  CG1       -8.4230   55.8990   44.1990 C.3   244  ILE244      0.0019
     92  CG2       -7.6250   53.7780   43.1400 C.3   244  ILE244      0.0019
     93  CD1       -9.6590   55.3550   44.8880 C.3   244  ILE244      0.0001
     94  N         -0.0960   50.6000   42.4130 N.3   255  PHE255     -0.1241
     95  CA        -1.1880   51.4990   42.7650 C.3   255  PHE255      0.1605
     96  C         -0.6720   52.9210   42.9780 C.2   255  PHE255      0.2264
     97  O          0.4110   53.1230   43.5300 O.2   255  PHE255     -0.2867
     98  CB        -1.9250   51.0180   44.0270 C.3   255  PHE255      0.0534
     99  CG        -3.2320   50.3040   43.7500 C.ar  255  PHE255     -0.0203
    100  CD1       -4.3680   51.0200   43.3010 C.ar  255  PHE255     -0.0042
    101  CD2       -3.3510   48.9160   43.9710 C.ar  255  PHE255     -0.0042
    102  CE1       -5.6200   50.3610   43.0770 C.ar  255  PHE255     -0.0003
    103  CE2       -4.5930   48.2370   43.7550 C.ar  255  PHE255     -0.0003
    104  CZ        -5.7300   48.9630   43.3080 C.ar  255  PHE255     -0.0000
    105  N         -2.2250   56.1970   44.5520 N.3   257  LEU257     -0.1231
    106  CA        -3.3040   56.7850   45.3460 C.3   257  LEU257      0.1693
    107  C         -2.9640   58.2070   45.7660 C.2   257  LEU257      0.2592
    108  O         -2.0210   58.4190   46.5330 O.2   257  LEU257     -0.2718
    109  CB        -3.5470   55.9540   46.6190 C.3   257  LEU257      0.0284
    110  CG        -3.5870   54.4190   46.5910 C.3   257  LEU257      0.0019
    111  CD1       -3.6150   53.8690   48.0060 C.3   257  LEU257      0.0001
    112  CD2       -4.7830   53.9280   45.8000 C.3   257  LEU257      0.0001
    113  N         -3.7220   59.1860   45.2730 N.am  258  LEU258     -0.1966
    114  CA        -3.4910   60.5800   45.6630 C.3   258  LEU258      0.1728
    115  C         -4.1100   60.7910   47.0500 C.2   258  LEU258      0.2616
    116  O         -5.1150   60.1580   47.3840 O.2   258  LEU258     -0.2715
    117  CB        -4.0840   61.5570   44.6400 C.3   258  LEU258      0.0311
    118  CG        -3.5140   61.5940   43.2110 C.3   258  LEU258      0.0022
    119  CD1       -4.2320   62.6770   42.4140 C.3   258  LEU258      0.0001
    120  CD2       -2.0110   61.8460   43.2000 C.3   258  LEU258      0.0001
    121  N         -3.4890   61.6430   47.8640 N.am  259  LYS259     -0.1977
    122  CA        -3.9620   61.9210   49.2280 C.3   259  LYS259      0.1596
    123  C         -5.3390   62.5850   49.3040 C.2   259  LYS259      0.2287
    124  O         -5.9930   62.5640   50.3490 O.2   259  LYS259     -0.2864
    125  CB        -2.9190   62.7470   49.9980 C.3   259  LYS259      0.0298
    126  CG        -2.4830   64.0540   49.3280 C.3   259  LYS259      0.0038
    127  CD        -1.3960   64.7720   50.1350 C.3   259  LYS259      0.0206
    128  CE        -0.0050   64.1770   49.9120 C.3   259  LYS259      0.1093
    129  NZ         0.4820   64.4180   48.5230 N.3   259  LYS259     -0.1314
    130  N         -8.0900   61.5400   47.8810 N.3   261  VAL261     -0.1231
    131  CA        -9.1660   60.5430   47.7320 C.3   261  VAL261      0.1678
    132  C        -10.2870   60.6350   48.7950 C.2   261  VAL261      0.2434
    133  O        -11.4570   60.7060   48.4070 O.2   261  VAL261     -0.2733
    134  CB        -8.5970   59.0710   47.5590 C.3   261  VAL261      0.0265
    135  CG1       -9.7100   58.0220   47.5850 C.3   261  VAL261      0.0020
    136  CG2       -7.8260   58.9620   46.2670 C.3   261  VAL261      0.0020
    137  N         -9.9590   60.6870   50.1230 N.am  262  PRO262     -0.2729
    138  CA       -11.0700   60.7820   51.0840 C.3   262  PRO262      0.1401
    139  C        -11.8680   62.0840   50.9850 C.2   262  PRO262      0.2269
    140  O        -13.0840   62.0840   51.1810 O.2   262  PRO262     -0.2865
    141  CB       -10.3710   60.6450   52.4350 C.3   262  PRO262      0.0296
    142  CG        -9.0030   61.1300   52.1850 C.3   262  PRO262      0.0237
    143  CD        -8.6820   60.5440   50.8580 C.3   262  PRO262      0.0939
    144  N        -17.5620   50.7030   51.8660 N.3   293  HIS293     -0.1241
    145  CA       -16.2610   50.0860   51.6450 C.3   293  HIS293      0.1621
    146  C        -15.2020   50.7460   52.5370 C.2   293  HIS293      0.2264
    147  O        -15.0370   51.9630   52.5050 O.2   293  HIS293     -0.2867
    148  CB       -15.8600   50.1920   50.1620 C.3   293  HIS293      0.0745
    149  CG       -14.4560   49.7560   49.8840 C.ar  293  HIS293      0.0817
    150  ND1      -14.0180   48.4730   50.1210 N.ar  293  HIS293     -0.2268
    151  CD2      -13.3650   50.4610   49.5050 C.ar  293  HIS293      0.1154
    152  CE1      -12.7160   48.4110   49.9150 C.ar  293  HIS293      0.1986
    153  NE2      -12.2940   49.6030   49.5410 N.ar  293  HIS293     -0.2212
    154  N        -12.1520   51.6330   52.6030 N.3   295  GLY295     -0.1210
    155  CA       -10.9730   51.9330   51.8000 C.3   295  GLY295      0.1956
    156  C         -9.8060   52.4190   52.6230 C.2   295  GLY295      0.2612
    157  O         -8.6500   52.1410   52.3100 O.2   295  GLY295     -0.2717
    158  N        -10.1630   53.0760   53.7200 N.am  296  GLY296     -0.1942
    159  CA        -9.2250   53.6260   54.6760 C.3   296  GLY296      0.1998
    160  C        -10.0760   54.2840   55.7460 C.2   296  GLY296      0.2481
    161  O        -11.2540   54.5360   55.4870 O.2   296  GLY296     -0.2729
    162  N         -9.5420   54.5710   56.9510 N.am  297  PRO297     -0.2715
    163  CA       -10.3320   55.2090   58.0120 C.3   297  PRO297      0.1536
    164  C        -10.7470   56.6450   57.6890 C.2   297  PRO297      0.2598
    165  O        -11.8420   57.0650   58.0590 O.2   297  PRO297     -0.2715
    166  CB        -9.3920   55.1520   59.2170 C.3   297  PRO297      0.0310
    167  CG        -8.0510   55.2620   58.5890 C.3   297  PRO297      0.0237
    168  CD        -8.1670   54.3200   57.4160 C.3   297  PRO297      0.0939
    169  N         -9.8910   57.3610   56.9470 N.am  298  ALA298     -0.1964
    170  CA       -10.1380   58.7510   56.5540 C.3   298  ALA298      0.1728
    171  C        -11.3630   58.8810   55.6640 C.2   298  ALA298      0.2616
    172  O        -12.0510   59.8960   55.7110 O.2   298  ALA298     -0.2715
    173  CB        -8.9200   59.3410   55.8600 C.3   298  ALA298      0.0334
    174  N        -11.6440   57.8410   54.8740 N.am  299  ILE299     -0.1977
    175  CA       -12.8190   57.8360   54.0020 C.3   299  ILE299      0.1596
    176  C        -14.0900   57.6900   54.8460 C.2   299  ILE299      0.2287
    177  O        -15.0400   58.4530   54.6700 O.2   299  ILE299     -0.2864
    178  CB       -12.7630   56.7240   52.9230 C.3   299  ILE299      0.0276
    179  CG1      -11.4730   56.8510   52.0880 C.3   299  ILE299      0.0022
    180  CG2      -13.9720   56.8540   52.0170 C.3   299  ILE299      0.0022
    181  CD1      -11.2810   55.8120   50.9820 C.3   299  ILE299      0.0001
    182  N         -8.4550   46.4090   54.3020 N.3   326  ASN326     -0.1240
    183  CA        -9.0930   46.7140   53.0220 C.3   326  ASN326      0.1653
    184  C         -8.8850   45.4940   52.1170 C.2   326  ASN326      0.2266
    185  O         -7.8080   45.2830   51.5750 O.2   326  ASN326     -0.2867
    186  CB        -8.4530   47.9810   52.4180 C.3   326  ASN326      0.1155
    187  CG        -9.0960   48.4310   51.1000 C.2   326  ASN326      0.2627
    188  OD1       -9.7460   47.6650   50.4020 O.2   326  ASN326     -0.2716
    189  ND2       -8.8620   49.6800   50.7420 N.am  326  ASN326     -0.0877
    190  N        -15.8850   52.3820   46.2560 N.3   363  PHE363     -0.1227
    191  CA       -15.1560   53.4060   45.5060 C.3   363  PHE363      0.1736
    192  C        -13.8480   52.8710   45.0070 C.2   363  PHE363      0.2596
    193  O        -13.2560   52.0090   45.6380 O.2   363  PHE363     -0.2718
    194  CB       -14.9060   54.7050   46.2970 C.3   363  PHE363      0.0547
    195  CG       -15.1430   54.5900   47.7590 C.ar  363  PHE363     -0.0202
    196  CD1      -16.3450   55.0600   48.3120 C.ar  363  PHE363     -0.0042
    197  CD2      -14.2020   53.9680   48.5870 C.ar  363  PHE363     -0.0042
    198  CE1      -16.6140   54.9000   49.6830 C.ar  363  PHE363     -0.0003
    199  CE2      -14.4540   53.8010   49.9550 C.ar  363  PHE363     -0.0003
    200  CZ       -15.6640   54.2650   50.5030 C.ar  363  PHE363     -0.0000
    201  N        -13.4110   53.3820   43.8640 N.am  364  GLY364     -0.1957
    202  CA       -12.1550   52.9440   43.2990 C.3   364  GLY364      0.1869
    203  C        -11.7480   53.7860   42.1080 C.2   364  GLY364      0.2309
    204  O        -12.1570   54.9480   42.0260 O.2   364  GLY364     -0.2863
@<TRIPOS>BOND
     1    89    88    2
     2    88    87    1
     3    86    87    1
     4   204   203    2
     5   203   202    1
     6    87    90    1
     7    94    95    1
     8   119   118    1
     9    95    96    1
    10    95    98    1
    11    90    92    1
    12    90    91    1
    13    96    97    2
    14   102   100   ar
    15   102   104   ar
    16   120   118    1
    17   118   117    1
    18   202   201    1
    19   100    99   ar
    20   104   103   ar
    21    99   101   ar
    22    99    98    1
    23   103   101   ar
    24   201   192   am
    25    91    93    1
    26   105   106    1
    27    59    57   ar
    28   117   114    1
    29   192   191    1
    30   192   193    2
    31   113   114    1
    32   113   107   am
    33   106   107    1
    34   106   109    1
    35   191   190    1
    36   191   194    1
    37   114   115    1
    38    57    58   ar
    39    57    56    1
    40   107   108    2
    41   112   110    1
    42   136   134    1
    43   194   195    1
    44   110   109    1
    45   110   111    1
    46    56    53    1
    47   115   116    2
    48   115   121   am
    49   134   135    1
    50   134   131    1
    51    85    84   ar
    52    85    83   ar
    53    84    82   ar
    54   131   130    1
    55   131   132    1
    56   195   196   ar
    57   195   197   ar
    58   121   122    1
    59    53    54    1
    60    53    52    1
    61    54    55    2
    62    44    45    1
    63   196   198   ar
    64    52    46   am
    65   133   132    2
    66    83    81   ar
    67   129   128    1
    68    82    80   ar
    69   197   199   ar
    70   132   137   am
    71   122   123    1
    72   122   125    1
    73   123   124    2
    74    81    80   ar
    75   126   125    1
    76   126   127    1
    77    80    79    1
    78   151   153   ar
    79   151   149   ar
    80   153   152   ar
    81    46    45    1
    82    46    47    2
    83    45    48    1
    84   198   200   ar
    85   149   150   ar
    86   149   148    1
    87   128   127    1
    88   152   150   ar
    89   199   200   ar
    90    48    49    1
    91   137   143    1
    92   137   138    1
    93   148   145    1
    94    79    76    1
    95   188   187    2
    96   189   187   am
    97   143   142    1
    98   181   179    1
    99   139   138    1
   100   139   140    2
   101   138   141    1
   102   187   186    1
   103    49    51    1
   104    49    50    1
   105    64    65    1
   106    64    66    1
   107    64    61    1
   108   185   184    2
   109   145   144    1
   110   145   146    1
   111    76    75    1
   112    76    77    1
   113   155   154    1
   114   155   156    1
   115    60    61    1
   116    62    61    1
   117    62    63    2
   118   180   178    1
   119   179   178    1
   120   184   183    1
   121   142   141    1
   122   157   156    2
   123    75    69   am
   124    77    78    2
   125   186   183    1
   126   147   146    2
   127   156   158   am
   128   178   175    1
   129    73    72    1
   130   183   182    1
   131    71    72    1
   132    71    68    1
   133    69    70    2
   134    69    68    1
   135   158   159    1
   136    72    74    1
   137   175   176    1
   138   175   174    1
   139    68    67    1
   140   177   176    2
   141   159   160    1
   142   174   171   am
   143     9     8    1
   144   161   160    2
   145    28    26    1
   146   171   172    2
   147   171   170    1
   148   160   162   am
   149   173   170    1
   150     7     8    1
   151     7     6    1
   152    27    25    1
   153   170   169    1
   154    26    25    1
   155   169   164   am
   156   162   168    1
   157   162   163    1
   158     5     6    1
   159     5     2    1
   160    25    22    1
   161   168   167    1
   162   164   163    1
   163   164   165    2
   164   163   166    1
   165     3     4    2
   166     3     2    1
   167     2     1    1
   168   167   166    1
   169    22    23    1
   170    22    21    1
   171    42    39    1
   172    42    43    1
   173    41    40    2
   174    23    24    2
   175    20    18    1
   176    39    40    1
   177    39    38    1
   178    21    12   am
   179    38    31   am
   180    32    31    2
   181    18    17    2
   182    18    19    1
   183    12    13    2
   184    12    11    1
   185    31    30    1
   186    17    16    1
   187    14    11    1
   188    14    15    1
   189    10    11    1
   190    33    30    1
   191    33    34    1
   192    30    29    1
   193    35    34    1
   194    35    36    1
   195    15    16    1
   196    37    36    1
