@<TRIPOS>MOLECULE
tmp/3awmA01.pdb
 161 157 0 0 0
SMALL
GASTEIGER

@<TRIPOS>ATOM
      1  N         26.2350   -5.5100   15.0990 N.3     9  LEU9       -0.1245
      2  CA        27.4230   -5.9730   14.3730 C.3     9  LEU9        0.1561
      3  C         27.1970   -6.0240   12.8590 C.2     9  LEU9        0.2260
      4  O         28.1440   -5.8800   12.0830 O.2     9  LEU9       -0.2867
      5  CB        27.8940   -7.3390   14.8860 C.3     9  LEU9        0.0270
      6  CG        28.4980   -7.3930   16.2910 C.3     9  LEU9        0.0019
      7  CD1       28.7240   -8.8450   16.7200 C.3     9  LEU9        0.0001
      8  CD2       29.7910   -6.5870   16.3780 C.3     9  LEU9        0.0001
      9  N         37.8080   -8.2470   24.8510 N.3    64  ALA64      -0.1231
     10  CA        38.2220   -8.5420   23.4630 C.3    64  ALA64       0.1694
     11  C         38.9170   -7.3530   22.8190 C.2    64  ALA64       0.2591
     12  O         39.7780   -7.5260   21.9600 O.2    64  ALA64      -0.2718
     13  CB        37.0370   -9.0250   22.6080 C.3    64  ALA64       0.0304
     14  N         38.5200   -6.1490   23.2400 N.am   65  ILE65      -0.1980
     15  CA        39.1540   -4.9130   22.7950 C.3    65  ILE65       0.1595
     16  C         40.5090   -4.6930   23.4860 C.2    65  ILE65       0.2287
     17  O         41.4810   -4.2690   22.8280 O.2    65  ILE65      -0.2864
     18  CB        38.2090   -3.7240   23.0350 C.3    65  ILE65       0.0276
     19  CG1       37.0380   -3.8270   22.0660 C.3    65  ILE65       0.0022
     20  CG2       38.9600   -2.3800   22.9000 C.3    65  ILE65       0.0022
     21  CD1       37.4050   -3.4540   20.6340 C.3    65  ILE65       0.0001
     22  N         43.0970   -6.7140   21.6910 N.3    68  THR68      -0.1203
     23  CA        43.3630   -6.4140   20.2850 C.3    68  THR68       0.1994
     24  C         43.6660   -4.9350   20.0780 C.2    68  THR68       0.2618
     25  O         44.8240   -4.5140   20.1460 O.2    68  THR68      -0.2717
     26  CB        42.1970   -6.8790   19.3370 C.3    68  THR68       0.1784
     27  OG1       40.9520   -6.3100   19.7710 O.3    68  THR68      -0.2211
     28  CG2       42.0610   -8.4190   19.3400 C.3    68  THR68       0.0376
     29  N         42.6180   -4.1440   19.8740 N.am   69  LEU69      -0.1965
     30  CA        42.7460   -2.7450   19.5040 C.3    69  LEU69       0.1728
     31  C         43.5220   -1.8870   20.5010 C.2    69  LEU69       0.2616
     32  O         44.3840   -1.0970   20.0940 O.2    69  LEU69      -0.2715
     33  CB        41.3440   -2.1420   19.3310 C.3    69  LEU69       0.0311
     34  CG        41.2890   -0.6860   18.8990 C.3    69  LEU69       0.0022
     35  CD1       41.8250   -0.5340   17.4640 C.3    69  LEU69       0.0001
     36  CD2       39.8430   -0.1480   19.0570 C.3    69  LEU69       0.0001
     37  N         43.2090   -2.0170   21.7910 N.am   70  LEU70      -0.1977
     38  CA        43.7040   -1.0170   22.7640 C.3    70  LEU70       0.1596
     39  C         44.7990   -1.4440   23.7310 C.2    70  LEU70       0.2287
     40  O         45.5470   -0.5940   24.2160 O.2    70  LEU70      -0.2864
     41  CB        42.5320   -0.4150   23.5530 C.3    70  LEU70       0.0297
     42  CG        41.4990    0.3320   22.7050 C.3    70  LEU70       0.0022
     43  CD1       40.3860    0.8460   23.6130 C.3    70  LEU70       0.0001
     44  CD2       42.1530    1.4860   21.9020 C.3    70  LEU70       0.0001
     45  N         42.7790    5.0330   27.9470 N.3    76  GLN76      -0.1245
     46  CA        41.3210    4.9000   27.6550 C.3    76  GLN76       0.1566
     47  C         40.5290    4.3530   28.8390 C.2    76  GLN76       0.2260
     48  O         39.3290    4.6390   28.9610 O.2    76  GLN76      -0.2867
     49  CB        41.0890    4.0010   26.4350 C.3    76  GLN76       0.0367
     50  CG        41.6320    4.5550   25.1400 C.3    76  GLN76       0.0905
     51  CD        43.0620    4.1550   24.8340 C.2    76  GLN76       0.2608
     52  OE1       43.7970    3.6500   25.6900 O.2    76  GLN76      -0.2717
     53  NE2       43.4690    4.3980   23.5820 N.am   76  GLN76      -0.0878
     54  N         44.0330   -2.7930   14.5560 N.3   161  PHE161     -0.1241
     55  CA        42.7880   -2.0500   14.2800 C.3   161  PHE161      0.1605
     56  C         41.9950   -2.5560   13.1040 C.2   161  PHE161      0.2264
     57  O         40.8050   -2.2760   13.0140 O.2   161  PHE161     -0.2867
     58  CB        43.0350   -0.5370   14.1100 C.3   161  PHE161      0.0534
     59  CG        43.8750   -0.1930   12.9020 C.ar  161  PHE161     -0.0203
     60  CD1       43.2790   -0.0560   11.6260 C.ar  161  PHE161     -0.0042
     61  CD2       45.2480    0.0200   13.0400 C.ar  161  PHE161     -0.0042
     62  CE1       44.0510    0.2610   10.5080 C.ar  161  PHE161     -0.0003
     63  CE2       46.0500    0.3350   11.9200 C.ar  161  PHE161     -0.0003
     64  CZ        45.4480    0.4510   10.6510 C.ar  161  PHE161     -0.0000
     65  N         40.8820   -6.4660   14.3110 N.3   164  ALA164     -0.1231
     66  CA        40.2130   -6.5750   15.6170 C.3   164  ALA164      0.1694
     67  C         38.7050   -6.8490   15.4880 C.2   164  ALA164      0.2593
     68  O         38.1610   -7.7480   16.1460 O.2   164  ALA164     -0.2718
     69  CB        40.4600   -5.3270   16.4400 C.3   164  ALA164      0.0304
     70  N         38.0440   -6.1000   14.6150 N.am  165  GLY165     -0.1942
     71  CA        36.6030   -6.2390   14.4210 C.3   165  GLY165      0.2014
     72  C         36.1640   -7.2170   13.3480 C.2   165  GLY165      0.2640
     73  O         35.0460   -7.1080   12.8290 O.2   165  GLY165     -0.2714
     74  N         37.0250   -8.1770   13.0090 N.am  166  SER166     -0.1935
     75  CA        36.6970   -9.1670   11.9750 C.3   166  SER166      0.2055
     76  C         36.2220  -10.4710   12.6120 C.2   166  SER166      0.2642
     77  O         36.9100  -11.0410   13.4530 O.2   166  SER166     -0.2714
     78  CB        37.9020   -9.4160   11.0530 C.3   166  SER166      0.2130
     79  OG        37.6210  -10.4130   10.0760 O.3   166  SER166     -0.2179
     80  N         35.0410  -10.9320   12.2000 N.am  167  ALA167     -0.1977
     81  CA        34.4270  -12.1510   12.7340 C.3   167  ALA167      0.1597
     82  C         34.9750  -13.3600   11.9830 C.2   167  ALA167      0.2287
     83  O         34.2330  -14.0850   11.3050 O.2   167  ALA167     -0.2864
     84  CB        32.8990  -12.0700   12.6200 C.3   167  ALA167      0.0319
     85  N         40.6430  -12.1550   13.5840 N.3   171  HIS171     -0.1241
     86  CA        40.6070  -11.6970   14.9920 C.3   171  HIS171      0.1621
     87  C         41.6970  -12.3930   15.8080 C.2   171  HIS171      0.2264
     88  O         42.3090  -11.7850   16.6760 O.2   171  HIS171     -0.2867
     89  CB        39.2390  -11.9370   15.6400 C.3   171  HIS171      0.0745
     90  CG        39.1520  -11.4780   17.0660 C.ar  171  HIS171      0.0817
     91  ND1       38.9520  -10.1560   17.4120 N.ar  171  HIS171     -0.2268
     92  CD2       39.2420  -12.1640   18.2320 C.ar  171  HIS171      0.1154
     93  CE1       38.9180  -10.0500   18.7300 C.ar  171  HIS171      0.1986
     94  NE2       39.0910  -11.2530   19.2510 N.ar  171  HIS171     -0.2212
     95  N         49.9950    2.8210   16.7580 N.3   233  ARG233     -0.1231
     96  CA        48.8700    2.1700   16.1000 C.3   233  ARG233      0.1679
     97  C         47.8940    3.1510   15.4220 C.2   233  ARG233      0.2434
     98  O         47.5930    3.0010   14.2340 O.2   233  ARG233     -0.2733
     99  CB        48.1260    1.2810   17.1010 C.3   233  ARG233      0.0321
    100  CG        46.8870    0.5830   16.5080 C.3   233  ARG233      0.0489
    101  CD        45.9950    0.0810   17.6210 C.3   233  ARG233      0.2205
    102  NE        45.3160    1.2010   18.3040 N.pl3 233  ARG233     -0.0865
    103  CZ        45.5920    1.6340   19.5370 C.cat 233  ARG233      0.5346
    104  NH1       46.6120    1.1030   20.2360 N.pl3 233  ARG233      0.1354
    105  NH2       44.8530    2.6220   20.0480 N.pl3 233  ARG233      0.1354
    106  N         47.3820    4.1440   16.1630 N.am  234  PRO234     -0.2729
    107  CA        46.3830    4.9850   15.4940 C.3   234  PRO234      0.1401
    108  C         47.0030    5.8640   14.4020 C.2   234  PRO234      0.2269
    109  O         46.3030    6.2870   13.4780 O.2   234  PRO234     -0.2865
    110  CB        45.8000    5.8320   16.6260 C.3   234  PRO234      0.0296
    111  CG        46.7250    5.6760   17.7610 C.3   234  PRO234      0.0237
    112  CD        47.5540    4.4650   17.5940 C.3   234  PRO234      0.0939
    113  N         46.6730    3.8630   11.5400 N.3   237  ALA237     -0.1245
    114  CA        45.2540    3.8170   11.1570 C.3   237  ALA237      0.1562
    115  C         44.8260    4.9960   10.2840 C.2   237  ALA237      0.2260
    116  O         43.7460    4.9470    9.6670 O.2   237  ALA237     -0.2867
    117  CB        44.3430    3.6810   12.4210 C.3   237  ALA237      0.0290
    118  N         34.2660    5.8840   10.4670 N.3   279  PHE279     -0.1227
    119  CA        35.5670    5.3410   10.8770 C.3   279  PHE279      0.1736
    120  C         35.4690    4.7850   12.3000 C.2   279  PHE279      0.2595
    121  O         35.4300    3.5760   12.4910 O.2   279  PHE279     -0.2718
    122  CB        36.6620    6.4050   10.7130 C.3   279  PHE279      0.0547
    123  CG        38.0950    5.8790   10.8040 C.ar  279  PHE279     -0.0202
    124  CD1       38.3940    4.6130   11.3000 C.ar  279  PHE279     -0.0042
    125  CD2       39.1460    6.7020   10.4250 C.ar  279  PHE279     -0.0042
    126  CE1       39.7270    4.1720   11.3830 C.ar  279  PHE279     -0.0003
    127  CE2       40.4850    6.2950   10.5200 C.ar  279  PHE279     -0.0003
    128  CZ        40.7800    5.0130   11.0030 C.ar  279  PHE279     -0.0000
    129  N         35.4600    5.6680   13.2920 N.am  280  PHE280     -0.1963
    130  CA        35.3130    5.2460   14.6840 C.3   280  PHE280      0.1756
    131  C         33.8120    5.2900   14.9160 C.2   280  PHE280      0.2461
    132  O         33.2320    6.3720   14.9600 O.2   280  PHE280     -0.2730
    133  CB        36.0120    6.2570   15.5990 C.3   280  PHE280      0.0574
    134  CG        36.6010    5.6630   16.8550 C.ar  280  PHE280     -0.0200
    135  CD1       35.7910    5.3490   17.9390 C.ar  280  PHE280     -0.0042
    136  CD2       37.9820    5.4520   16.9610 C.ar  280  PHE280     -0.0042
    137  CE1       36.3550    4.8190   19.1140 C.ar  280  PHE280     -0.0003
    138  CE2       38.5440    4.9350   18.1290 C.ar  280  PHE280     -0.0003
    139  CZ        37.7200    4.6260   19.2030 C.ar  280  PHE280     -0.0000
    140  N         33.1700    4.1190   15.0460 N.am  281  PRO281     -0.2727
    141  CA        31.7020    4.0960   15.0460 C.3   281  PRO281      0.1402
    142  C         31.0870    4.8830   16.1930 C.2   281  PRO281      0.2269
    143  O         30.2690    5.8180   15.9420 O.2   281  PRO281     -0.2865
    144  CB        31.3550    2.6020   15.1480 C.3   281  PRO281      0.0296
    145  CG        32.6180    1.8840   15.4340 C.3   281  PRO281      0.0237
    146  CD        33.7740    2.7820   15.1180 C.3   281  PRO281      0.0939
    147  N         34.6430   -3.2140    9.8530 N.3   390  LEU390     -0.1231
    148  CA        35.2650   -2.3540   10.8770 C.3   390  LEU390      0.1678
    149  C         36.7810   -2.4470   10.7630 C.2   390  LEU390      0.2434
    150  O         37.3380   -3.5460   10.9650 O.2   390  LEU390     -0.2733
    151  CB        34.8580   -2.8050   12.2900 C.3   390  LEU390      0.0284
    152  CG        33.4180   -2.5230   12.7030 C.3   390  LEU390      0.0019
    153  CD1       33.0550   -3.3480   13.9390 C.3   390  LEU390      0.0001
    154  CD2       33.1660   -1.0200   12.9110 C.3   390  LEU390      0.0001
    155  N         37.4660   -1.3450   10.4000 N.am  391  PRO391     -0.2729
    156  CA        36.9490   -0.0440    9.9540 C.3   391  PRO391      0.1401
    157  C         36.3310   -0.1370    8.5460 C.2   391  PRO391      0.2269
    158  O         36.6870   -1.0220    7.7470 O.2   391  PRO391     -0.2865
    159  CB        38.2030    0.8270    9.8740 C.3   391  PRO391      0.0296
    160  CG        39.3180   -0.1650    9.5430 C.3   391  PRO391      0.0237
    161  CD        38.9350   -1.4240   10.2980 C.3   391  PRO391      0.0939
@<TRIPOS>BOND
     1   158   157    2
     2   157   156    1
     3   160   159    1
     4   160   161    1
     5   116   115    2
     6   147   148    1
     7   159   156    1
     8   156   155    1
     9    79    78    1
    10   115   114    1
    11   161   155    1
    12   155   149   am
    13   125   127   ar
    14   125   123   ar
    15   118   119    1
    16    62    64   ar
    17    62    60   ar
    18   127   128   ar
    19    64    63   ar
    20   122   123    1
    21   122   119    1
    22   149   148    1
    23   149   150    2
    24   123   124   ar
    25   148   151    1
    26   119   120    1
    27   128   126   ar
    28    78    75    1
    29   114   113    1
    30   114   117    1
    31   124   126   ar
    32    83    82    2
    33    60    59   ar
    34    63    61   ar
    35    75    76    1
    36    75    74    1
    37    82    81    1
    38     4     3    2
    39    80    76   am
    40    80    81    1
    41   151   152    1
    42   120   121    2
    43   120   129   am
    44    76    77    2
    45    84    81    1
    46   152   154    1
    47   152   153    1
    48    73    72    2
    49     3     2    1
    50    59    61   ar
    51    59    58    1
    52    74    72   am
    53    57    56    2
    54    56    55    1
    55   129   130    1
    56    72    71    1
    57   109   108    2
    58    85    86    1
    59    58    55    1
    60    98    97    2
    61    55    54    1
    62    65    66    1
    63     2     5    1
    64     2     1    1
    65   108   107    1
    66    71    70    1
    67    70    67   am
    68   130   131    1
    69   130   133    1
    70     5     6    1
    71   131   132    2
    72   131   140   am
    73    86    89    1
    74    86    87    1
    75   140   141    1
    76   140   146    1
    77   141   144    1
    78   141   142    1
    79   146   145    1
    80   144   145    1
    81    97    96    1
    82    97   106   am
    83    67    66    1
    84    67    68    2
    85   107   106    1
    86   107   110    1
    87   133   134    1
    88    66    69    1
    89    89    90    1
    90    87    88    2
    91   143   142    2
    92    96    95    1
    93    96    99    1
    94   106   112    1
    95     6     8    1
    96     6     7    1
    97   100    99    1
    98   100   101    1
    99   110   111    1
   100   134   136   ar
   101   134   135   ar
   102   136   138   ar
   103    90    91   ar
   104    90    92   ar
   105    91    93   ar
   106    35    34    1
   107   112   111    1
   108   101   102    1
   109   135   137   ar
   110   138   139   ar
   111    92    94   ar
   112   102   103    2
   113    93    94   ar
   114    34    36    1
   115    34    33    1
   116   137   139   ar
   117    33    30    1
   118    26    28    1
   119    26    27    1
   120    26    23    1
   121    30    29    1
   122    30    31    1
   123   103   105    1
   124   103   104    1
   125    29    24   am
   126    24    25    2
   127    24    23    1
   128    32    31    2
   129    23    22    1
   130    31    37   am
   131    21    19    1
   132    37    38    1
   133    44    42    1
   134    12    11    2
   135    19    18    1
   136    13    10    1
   137    42    41    1
   138    42    43    1
   139    38    41    1
   140    38    39    1
   141    15    18    1
   142    15    14    1
   143    15    16    1
   144    11    14   am
   145    11    10    1
   146    17    16    2
   147    20    18    1
   148    10     9    1
   149    53    51   am
   150    39    40    2
   151    51    50    1
   152    51    52    2
   153    50    49    1
   154    49    46    1
   155    46    45    1
   156    46    47    1
   157    47    48    2
