@<TRIPOS>MOLECULE
tmp/3awpA02.pdb
 79 74 0 0 0
SMALL
GASTEIGER

@<TRIPOS>ATOM
      1  N         35.6340   -1.1130   29.0230 N.3    61  MET61      -0.1245
      2  CA        36.1280   -1.6500   27.7600 C.3    61  MET61       0.1570
      3  C         36.0110   -3.1700   27.6980 C.2    61  MET61       0.2261
      4  O         36.5140   -3.8830   28.5410 O.2    61  MET61      -0.2867
      5  CB        37.5610   -1.2040   27.4730 C.3    61  MET61       0.0387
      6  CG        37.9960   -1.4860   26.0240 C.3    61  MET61       0.0595
      7  SD        36.9350   -0.6970   24.7900 S.3    61  MET61      -0.1393
      8  CE        37.1310    1.0230   25.2450 C.3    61  MET61       0.0692
      9  N         38.4590   -6.1300   23.0120 N.3    65  ILE65      -0.1245
     10  CA        39.0820   -4.8930   22.5250 C.3    65  ILE65       0.1561
     11  C         40.4250   -4.6370   23.2260 C.2    65  ILE65       0.2260
     12  O         41.4210   -4.2580   22.5880 O.2    65  ILE65      -0.2867
     13  CB        38.1060   -3.6920   22.6540 C.3    65  ILE65       0.0252
     14  CG1       36.8000   -4.0060   21.8930 C.3    65  ILE65       0.0019
     15  CG2       38.7800   -2.4250   22.1430 C.3    65  ILE65       0.0019
     16  CD1       35.7790   -2.8410   21.8210 C.3    65  ILE65       0.0001
     17  N         42.6750   -4.1980   19.7740 N.3    69  LEU69      -0.1231
     18  CA        42.7570   -2.7770   19.4470 C.3    69  LEU69       0.1693
     19  C         43.5390   -1.9100   20.4320 C.2    69  LEU69       0.2591
     20  O         44.3790   -1.1160   20.0050 O.2    69  LEU69      -0.2718
     21  CB        41.3500   -2.1900   19.2800 C.3    69  LEU69       0.0284
     22  CG        41.2950   -0.7340   18.8620 C.3    69  LEU69       0.0019
     23  CD1       41.8520   -0.5250   17.4370 C.3    69  LEU69       0.0001
     24  CD2       39.8670   -0.2180   18.9620 C.3    69  LEU69       0.0001
     25  N         43.2620   -2.0390   21.7260 N.am   70  LEU70      -0.1980
     26  CA        43.7470   -1.0010   22.6760 C.3    70  LEU70       0.1596
     27  C         44.8550   -1.4070   23.6330 C.2    70  LEU70       0.2287
     28  O         45.6230   -0.5490   24.0990 O.2    70  LEU70      -0.2864
     29  CB        42.5720   -0.4430   23.4760 C.3    70  LEU70       0.0297
     30  CG        41.4920    0.2680   22.6530 C.3    70  LEU70       0.0022
     31  CD1       40.4070    0.7590   23.6210 C.3    70  LEU70       0.0001
     32  CD2       42.0750    1.4290   21.8190 C.3    70  LEU70       0.0001
     33  N         42.8390    5.0170   27.9490 N.3    76  GLN76      -0.1245
     34  CA        41.3860    4.9020   27.6640 C.3    76  GLN76       0.1566
     35  C         40.6030    4.3380   28.8360 C.2    76  GLN76       0.2260
     36  O         39.4060    4.5940   28.9480 O.2    76  GLN76      -0.2867
     37  CB        41.1300    4.0150   26.4270 C.3    76  GLN76       0.0367
     38  CG        41.7290    4.5590   25.1300 C.3    76  GLN76       0.0905
     39  CD        43.1430    4.0860   24.8680 C.2    76  GLN76       0.2608
     40  OE1       43.8070    3.5430   25.7520 O.2    76  GLN76      -0.2717
     41  NE2       43.6170    4.3020   23.6470 N.am   76  GLN76      -0.0878
     42  N         35.4830    6.0820   13.2930 N.3   280  GLY280     -0.1210
     43  CA        35.4440    5.7860   14.7230 C.3   280  GLY280      0.1940
     44  C         34.1260    5.1250   15.0930 C.2   280  GLY280      0.2454
     45  O         33.0620    5.6750   14.8110 O.2   280  GLY280     -0.2732
     46  N         34.1810    3.9340   15.7170 N.am  281  PRO281     -0.2717
     47  CA        32.9580    3.3050   16.1820 C.3   281  PRO281      0.1535
     48  C         32.4490    4.0190   17.4220 C.2   281  PRO281      0.2598
     49  O         33.1450    4.8890   17.9650 O.2   281  PRO281     -0.2715
     50  CB        33.4110    1.8670   16.5220 C.3   281  PRO281      0.0310
     51  CG        34.7750    1.7180   15.8450 C.3   281  PRO281      0.0237
     52  CD        35.3550    3.0800   15.9770 C.3   281  PRO281      0.0939
     53  N         31.2450    3.6740   17.8670 N.am  282  ALA282     -0.1964
     54  CA        30.6780    4.2910   19.0630 C.3   282  ALA282      0.1728
     55  C         31.5960    4.1140   20.2710 C.2   282  ALA282      0.2616
     56  O         32.2670    3.0740   20.4170 O.2   282  ALA282     -0.2715
     57  CB        29.2740    3.7490   19.3480 C.3   282  ALA282      0.0334
     58  N         31.6680    5.1610   21.0880 N.am  283  VAL283     -0.1963
     59  CA        32.4980    5.1670   22.2910 C.3   283  VAL283      0.1727
     60  C         31.6690    4.6560   23.4550 C.2   283  VAL283      0.2616
     61  O         30.4790    4.9650   23.5280 O.2   283  VAL283     -0.2715
     62  CB        32.9980    6.6030   22.6020 C.3   283  VAL283      0.0290
     63  CG1       33.8150    6.6320   23.9120 C.3   283  VAL283      0.0023
     64  CG2       33.8250    7.1200   21.4330 C.3   283  VAL283      0.0023
     65  N         32.2920    3.8960   24.3630 N.am  284  VAL284     -0.1977
     66  CA        31.5700    3.2930   25.4800 C.3   284  VAL284      0.1596
     67  C         31.9540    3.9110   26.8230 C.2   284  VAL284      0.2287
     68  O         33.1220    4.1810   27.0800 O.2   284  VAL284     -0.2864
     69  CB        31.7800    1.7430   25.5410 C.3   284  VAL284      0.0276
     70  CG1       33.2040    1.3980   25.8990 C.3   284  VAL284      0.0022
     71  CG2       30.8180    1.0950   26.5410 C.3   284  VAL284      0.0022
     72  N         29.2980    8.3210   17.1830 N.3   308  LEU308     -0.1245
     73  CA        30.0460    9.4080   16.5280 C.3   308  LEU308      0.1561
     74  C         29.5510    9.6700   15.1020 C.2   308  LEU308      0.2260
     75  O         29.2730   10.8150   14.7190 O.2   308  LEU308     -0.2867
     76  CB        31.5460    9.0850   16.5110 C.3   308  LEU308      0.0270
     77  CG        32.1600    8.7230   17.8680 C.3   308  LEU308      0.0019
     78  CD1       33.6810    8.4250   17.6990 C.3   308  LEU308      0.0001
     79  CD2       31.8860    9.8240   18.9160 C.3   308  LEU308      0.0001
@<TRIPOS>BOND
     1    42    43    1
     2    75    74    2
     3    43    44    1
     4    45    44    2
     5    44    46   am
     6    74    73    1
     7    46    52    1
     8    46    47    1
     9    51    52    1
    10    51    50    1
    11    47    50    1
    12    47    48    1
    13    76    73    1
    14    76    77    1
    15    73    72    1
    16    48    53   am
    17    48    49    2
    18    23    22    1
    19    78    77    1
    20    53    54    1
    21    77    79    1
    22    22    24    1
    23    22    21    1
    24    54    57    1
    25    54    55    1
    26    21    18    1
    27    18    17    1
    28    18    19    1
    29    20    19    2
    30    55    56    2
    31    55    58   am
    32    19    25   am
    33    58    59    1
    34    64    62    1
    35    25    26    1
    36    32    30    1
    37    16    14    1
    38    14    13    1
    39    15    13    1
    40    59    62    1
    41    59    60    1
    42    10    13    1
    43    10     9    1
    44    10    11    1
    45    12    11    2
    46    62    63    1
    47    30    29    1
    48    30    31    1
    49    26    29    1
    50    26    27    1
    51    60    61    2
    52    60    65   am
    53    27    28    2
    54    41    39   am
    55    65    66    1
    56     7     8    1
    57     7     6    1
    58    39    38    1
    59    39    40    2
    60    38    37    1
    61    66    69    1
    62    66    67    1
    63    69    70    1
    64    69    71    1
    65     6     5    1
    66    37    34    1
    67    67    68    2
    68     5     2    1
    69    34    33    1
    70    34    35    1
    71     3     2    1
    72     3     4    2
    73     2     1    1
    74    35    36    2
