@<TRIPOS>MOLECULE
tmp/3awrA00.pdb
 129 120 0 0 0
SMALL
GASTEIGER

@<TRIPOS>ATOM
      1  N         -6.6090    0.4810   17.6530 N.3    17  PHE17      -0.1227
      2  CA        -6.7050    0.2420   19.0940 C.3    17  PHE17       0.1736
      3  C         -6.2370   -1.1830   19.4580 C.2    17  PHE17       0.2595
      4  O         -5.4520   -1.3680   20.3850 O.2    17  PHE17      -0.2718
      5  CB        -8.1520    0.4840   19.5580 C.3    17  PHE17       0.0547
      6  CG        -8.3880    0.1730   21.0170 C.ar   17  PHE17      -0.0202
      7  CD1       -8.2120    1.1490   21.9860 C.ar   17  PHE17      -0.0042
      8  CD2       -8.8170   -1.0990   21.4140 C.ar   17  PHE17      -0.0042
      9  CE1       -8.4170    0.8640   23.3410 C.ar   17  PHE17      -0.0003
     10  CE2       -9.0230   -1.3990   22.7680 C.ar   17  PHE17      -0.0003
     11  CZ        -8.8290   -0.4170   23.7330 C.ar   17  PHE17      -0.0000
     12  N         -6.7140   -2.1870   18.7240 N.am   18  LEU18      -0.1980
     13  CA        -6.3100   -3.5780   18.9980 C.3    18  LEU18       0.1596
     14  C         -4.7980   -3.7480   18.8300 C.2    18  LEU18       0.2287
     15  O         -4.1140   -4.2670   19.7210 O.2    18  LEU18      -0.2864
     16  CB        -7.0980   -4.5580   18.1190 C.3    18  LEU18       0.0297
     17  CG        -7.2510   -6.0010   18.6120 C.3    18  LEU18       0.0022
     18  CD1       -8.4550   -6.1430   19.5590 C.3    18  LEU18       0.0001
     19  CD2       -7.4140   -6.9870   17.4410 C.3    18  LEU18       0.0001
     20  N         -2.8330   -2.0090   21.7050 N.3    21  ILE21      -0.1231
     21  CA        -2.9100   -2.8100   22.9340 C.3    21  ILE21       0.1692
     22  C         -2.0470   -4.0670   22.8840 C.2    21  ILE21       0.2591
     23  O         -1.3090   -4.3400   23.8430 O.2    21  ILE21      -0.2718
     24  CB        -4.3590   -3.1750   23.2870 C.3    21  ILE21       0.0266
     25  CG1       -5.1290   -1.9210   23.7440 C.3    21  ILE21       0.0019
     26  CG2       -4.3820   -4.2390   24.3420 C.3    21  ILE21       0.0020
     27  CD1       -4.6900   -1.3120   25.0810 C.3    21  ILE21       0.0001
     28  N         -2.1250   -4.8060   21.7640 N.am   22  GLN22      -0.1979
     29  CA        -1.3180   -6.0230   21.5370 C.3    22  GLN22       0.1601
     30  C          0.1770   -5.6940   21.5390 C.2    22  GLN22       0.2287
     31  O          0.9900   -6.4130   22.1350 O.2    22  GLN22      -0.2864
     32  CB        -1.6880   -6.6930   20.2160 C.3    22  GLN22       0.0394
     33  CG        -3.0630   -7.3580   20.2010 C.3    22  GLN22       0.0908
     34  CD        -3.5010   -7.8870   18.8210 C.2    22  GLN22       0.2608
     35  OE1       -2.7450   -7.8600   17.8400 O.2    22  GLN22      -0.2717
     36  NE2       -4.7240   -8.3720   18.7510 N.am   22  GLN22      -0.0878
     37  N          1.3280   -4.5260   25.1500 N.3    25  GLU25      -0.1231
     38  CA         1.4110   -5.6540   26.1000 C.3    25  GLU25       0.1699
     39  C          2.5230   -6.6500   25.7640 C.2    25  GLU25       0.2592
     40  O          3.0810   -7.2620   26.6730 O.2    25  GLU25      -0.2718
     41  CB         0.0690   -6.4010   26.2530 C.3    25  GLU25       0.0402
     42  CG        -1.0240   -5.6390   27.0150 C.3    25  GLU25       0.1161
     43  CD        -0.7520   -5.4800   28.5120 C.2    25  GLU25       0.3649
     44  OE1        0.3180   -5.9150   28.9920 O.co2  25  GLU25      -0.2457
     45  OE2       -1.6250   -4.9200   29.2240 O.co2  25  GLU25      -0.2457
     46  N          2.8140   -6.8220   24.4690 N.am   26  GLU26      -0.1979
     47  CA         3.9910   -7.5780   24.0240 C.3    26  GLU26       0.1602
     48  C          5.2940   -6.9130   24.4980 C.2    26  GLU26       0.2287
     49  O          6.1520   -7.5790   25.0810 O.2    26  GLU26      -0.2864
     50  CB         3.9890   -7.7960   22.4990 C.3    26  GLU26       0.0415
     51  CG         5.2740   -8.4010   21.8990 C.3    26  GLU26       0.1163
     52  CD         5.6200   -9.8370   22.3790 C.2    26  GLU26       0.3649
     53  OE1        4.8060  -10.4940   23.0820 O.co2  26  GLU26      -0.2457
     54  OE2        6.7280  -10.3120   22.0340 O.co2  26  GLU26      -0.2457
     55  N          5.6820   -7.2680   28.0730 N.3    29  ALA29      -0.1245
     56  CA         6.0660   -8.6570   28.3250 C.3    29  ALA29       0.1562
     57  C          7.5420   -8.9350   27.9940 C.2    29  ALA29       0.2260
     58  O          8.0740   -9.9830   28.3630 O.2    29  ALA29      -0.2867
     59  CB         5.1490   -9.6190   27.5580 C.3    29  ALA29       0.0290
     60  N          0.1770    1.7070   24.7230 N.3    40  LEU40      -0.1245
     61  CA        -0.9910    1.7540   25.5990 C.3    40  LEU40       0.1561
     62  C         -1.6140    3.1660   25.6620 C.2    40  LEU40       0.2260
     63  O         -2.8400    3.3260   25.5900 O.2    40  LEU40      -0.2867
     64  CB        -0.5860    1.2830   27.0010 C.3    40  LEU40       0.0270
     65  CG        -0.7440   -0.1830   27.4180 C.3    40  LEU40       0.0019
     66  CD1       -0.5390   -1.2080   26.3340 C.3    40  LEU40       0.0001
     67  CD2        0.1260   -0.5000   28.6420 C.3    40  LEU40       0.0001
     68  N         -9.8690    6.0970   22.5300 N.3    47  CYS47      -0.1235
     69  CA       -10.9930    5.4560   23.2010 C.3    47  CYS47       0.1677
     70  C        -11.8150    6.5850   23.7960 C.2    47  CYS47       0.2270
     71  O        -11.2940    7.4180   24.5380 O.2    47  CYS47      -0.2867
     72  CB       -10.4620    4.4920   24.2640 C.3    47  CYS47       0.0956
     73  SG       -11.6440    3.4790   25.1630 S.3    47  CYS47      -0.0801
     74  N        -14.4240    6.4380   25.9040 N.3    49  GLN49      -0.1245
     75  CA       -14.7180    6.2260   27.3310 C.3    49  GLN49       0.1566
     76  C        -13.7510    5.1710   27.9090 C.2    49  GLN49       0.2260
     77  O        -14.0860    3.9730   27.9800 O.2    49  GLN49      -0.2867
     78  CB       -16.1850    5.8050   27.5070 C.3    49  GLN49       0.0367
     79  CG       -16.8360    6.2650   28.8240 C.3    49  GLN49       0.0905
     80  CD       -18.2190    6.8940   28.6220 C.2    49  GLN49       0.2608
     81  OE1      -19.0490    6.3840   27.8560 O.2    49  GLN49      -0.2717
     82  NE2      -18.4660    8.0140   29.3060 N.am   49  GLN49      -0.0878
     83  N        -12.9000    2.0740   32.3370 N.3    52  GLN52      -0.1231
     84  CA       -12.5540    0.6830   32.6830 C.3    52  GLN52       0.1698
     85  C        -11.1690    0.2660   32.1880 C.2    52  GLN52       0.2592
     86  O        -10.4210   -0.3950   32.9140 O.2    52  GLN52      -0.2718
     87  CB       -13.6040   -0.2990   32.1770 C.3    52  GLN52       0.0381
     88  CG       -14.9070   -0.2760   32.9460 C.3    52  GLN52       0.0905
     89  CD       -15.8790   -1.2950   32.3990 C.2    52  GLN52       0.2608
     90  OE1      -15.5640   -2.0280   31.4620 O.2    52  GLN52      -0.2717
     91  NE2      -17.0580   -1.3600   32.9890 N.am   52  GLN52      -0.0878
     92  N        -10.8140    0.6630   30.9700 N.am   53  LEU53      -0.1980
     93  CA        -9.4510    0.4290   30.5030 C.3    53  LEU53       0.1596
     94  C         -8.3840    0.9780   31.4650 C.2    53  LEU53       0.2287
     95  O         -7.4340    0.2810   31.8020 O.2    53  LEU53      -0.2864
     96  CB        -9.2490    1.0270   29.1060 C.3    53  LEU53       0.0297
     97  CG        -7.8730    0.8970   28.4560 C.3    53  LEU53       0.0022
     98  CD1       -7.3890   -0.5650   28.4530 C.3    53  LEU53       0.0001
     99  CD2       -7.9290    1.4830   27.0240 C.3    53  LEU53       0.0001
    100  N         -8.3760   -1.0820   34.7690 N.3    56  VAL56      -0.1231
    101  CA        -7.7050   -2.3890   34.6410 C.3    56  VAL56       0.1692
    102  C         -6.1910   -2.2200   34.6340 C.2    56  VAL56       0.2591
    103  O         -5.4690   -2.9720   35.2900 O.2    56  VAL56      -0.2718
    104  CB        -8.1720   -3.1710   33.4030 C.3    56  VAL56       0.0266
    105  CG1       -7.3060   -4.3950   33.1720 C.3    56  VAL56       0.0020
    106  CG2       -9.6420   -3.5770   33.5680 C.3    56  VAL56       0.0020
    107  N         -5.7330   -1.2190   33.8870 N.am   57  LEU57      -0.1980
    108  CA        -4.3230   -0.8810   33.7640 C.3    57  LEU57       0.1596
    109  C         -3.7130   -0.5520   35.1150 C.2    57  LEU57       0.2287
    110  O         -2.6360   -1.0280   35.4500 O.2    57  LEU57      -0.2864
    111  CB        -4.1930    0.3110   32.8220 C.3    57  LEU57       0.0297
    112  CG        -3.7070    0.2120   31.3650 C.3    57  LEU57       0.0022
    113  CD1       -3.6170   -1.1870   30.7830 C.3    57  LEU57       0.0001
    114  CD2       -4.4700    1.1840   30.4750 C.3    57  LEU57       0.0001
    115  N         -3.4670   -3.5710   37.1410 N.3    60  THR60      -0.1203
    116  CA        -2.5060   -4.5850   36.6910 C.3    60  THR60       0.1994
    117  C         -1.0370   -4.1640   36.5120 C.2    60  THR60       0.2617
    118  O         -0.1480   -5.0200   36.5870 O.2    60  THR60      -0.2717
    119  CB        -2.9340   -5.2660   35.3720 C.3    60  THR60       0.1784
    120  OG1       -2.9750   -4.2930   34.3150 O.3    60  THR60      -0.2211
    121  CG2       -4.2790   -5.9560   35.5260 C.3    60  THR60       0.0376
    122  N         -0.7710   -2.8880   36.2480 N.am   61  LEU61      -0.1979
    123  CA         0.6040   -2.4530   35.9790 C.3    61  LEU61       0.1596
    124  C          1.3940   -2.2430   37.2690 C.2    61  LEU61       0.2287
    125  O          0.8180   -1.8570   38.2770 O.2    61  LEU61      -0.2864
    126  CB         0.6230   -1.1560   35.1540 C.3    61  LEU61       0.0297
    127  CG         0.1090   -1.1640   33.7060 C.3    61  LEU61       0.0022
    128  CD1        0.3410    0.1690   33.0530 C.3    61  LEU61       0.0001
    129  CD2        0.8100   -2.2500   32.9090 C.3    61  LEU61       0.0001
@<TRIPOS>BOND
     1    19    17    1
     2     1     2    1
     3    35    34    2
     4    16    17    1
     5    16    13    1
     6    17    18    1
     7    12    13    1
     8    12     3   am
     9    36    34   am
    10    34    33    1
    11    14    13    1
    12    14    15    2
    13     2     3    1
    14     2     5    1
    15     3     4    2
    16     5     6    1
    17    33    32    1
    18    32    29    1
    19     6     8   ar
    20     6     7   ar
    21     8    10   ar
    22    29    30    1
    23    29    28    1
    24    30    31    2
    25    20    21    1
    26    28    22   am
    27    51    52    1
    28    51    50    1
    29     7     9   ar
    30    54    52   ar
    31    52    53   ar
    32    50    47    1
    33    68    69    1
    34    10    11   ar
    35    22    21    1
    36    22    23    2
    37    21    24    1
    38    69    70    1
    39    69    72    1
    40    24    25    1
    41    24    26    1
    42     9    11   ar
    43    25    27    1
    44    70    71    2
    45    47    46    1
    46    47    48    1
    47    72    73    1
    48    46    39   am
    49    48    49    2
    50    60    61    1
    51    37    38    1
    52    63    62    2
    53    61    62    1
    54    61    64    1
    55    39    38    1
    56    39    40    2
    57    74    75    1
    58    38    41    1
    59    41    42    1
    60    66    65    1
    61    64    65    1
    62    42    43    1
    63    99    97    1
    64    75    78    1
    65    75    76    1
    66    65    67    1
    67    78    79    1
    68    59    56    1
    69    81    80    2
    70    76    77    2
    71    57    56    1
    72    57    58    2
    73    55    56    1
    74    98    97    1
    75    97    96    1
    76    43    44   ar
    77    43    45   ar
    78    80    79    1
    79    80    82   am
    80    96    93    1
    81   114   112    1
    82    93    92    1
    83    93    94    1
    84   113   112    1
    85    92    85   am
    86   112   111    1
    87    90    89    2
    88    94    95    2
    89    87    84    1
    90    87    88    1
    91    85    84    1
    92    85    86    2
    93    83    84    1
    94    89    88    1
    95    89    91   am
    96   111   108    1
    97   129   127    1
    98   128   127    1
    99   105   104    1
   100   104   106    1
   101   104   101    1
   102   127   126    1
   103   108   107    1
   104   108   109    1
   105   107   102   am
   106   120   119    1
   107   102   101    1
   108   102   103    2
   109   101   100    1
   110   109   110    2
   111   126   123    1
   112   119   121    1
   113   119   116    1
   114   123   122    1
   115   123   124    1
   116   122   117   am
   117   117   118    2
   118   117   116    1
   119   116   115    1
   120   124   125    2
