@<TRIPOS>MOLECULE
tmp/3ax2C00.pdb
 85 81 0 0 0
SMALL
GASTEIGER

@<TRIPOS>ATOM
      1  N         10.9360  -13.3120   -6.6840 N.3    10  VAL10      -0.1231
      2  CA        12.2260  -13.4540   -6.0140 C.3    10  VAL10       0.1692
      3  C         13.4010  -13.5690   -7.0230 C.2    10  VAL10       0.2591
      4  O         14.4400  -12.9370   -6.8230 O.2    10  VAL10      -0.2718
      5  CB        12.3090  -14.6830   -5.0120 C.3    10  VAL10       0.0266
      6  CG1       13.7460  -14.8310   -4.4990 C.3    10  VAL10       0.0020
      7  CG2       11.3400  -14.4830   -3.7980 C.3    10  VAL10       0.0020
      8  N         13.2580  -14.4310   -8.0280 N.am   11  GLN11      -0.1979
      9  CA        14.3650  -14.6530   -8.9630 C.3    11  GLN11       0.1601
     10  C         14.6500  -13.3980   -9.7750 C.2    11  GLN11       0.2287
     11  O         15.8090  -13.1170  -10.0520 O.2    11  GLN11      -0.2864
     12  CB        13.9710  -15.8390   -9.9000 C.3    11  GLN11       0.0394
     13  CG        13.8350  -17.0940   -9.0870 C.3    11  GLN11       0.0908
     14  CD        13.7130  -18.3480   -9.9380 C.2    11  GLN11       0.2608
     15  OE1       13.4870  -19.4450   -9.4020 O.2    11  GLN11      -0.2717
     16  NE2       13.8130  -18.2080  -11.2120 N.am   11  GLN11      -0.0878
     17  N         16.4230  -10.9580   -7.2820 N.3    14  PHE14      -0.1227
     18  CA        17.7670  -11.5020   -6.9670 C.3    14  PHE14       0.1736
     19  C         18.7570  -11.1150   -8.0750 C.2    14  PHE14       0.2595
     20  O         19.8020  -10.5720   -7.7650 O.2    14  PHE14      -0.2718
     21  CB        17.7100  -13.0210   -6.8920 C.3    14  PHE14       0.0547
     22  CG        19.0380  -13.6660   -6.5510 C.ar   14  PHE14      -0.0202
     23  CD1       19.5420  -13.5800   -5.2270 C.ar   14  PHE14      -0.0042
     24  CD2       19.8170  -14.2940   -7.5810 C.ar   14  PHE14      -0.0042
     25  CE1       20.8330  -14.1520   -4.8990 C.ar   14  PHE14      -0.0003
     26  CE2       21.0890  -14.8720   -7.2770 C.ar   14  PHE14      -0.0003
     27  CZ        21.6190  -14.7440   -5.9670 C.ar   14  PHE14      -0.0000
     28  N         18.3950  -11.3860   -9.3240 N.am   15  LEU15      -0.1980
     29  CA        19.3230  -11.0710  -10.4640 C.3    15  LEU15       0.1596
     30  C         19.5400   -9.5780  -10.5790 C.2    15  LEU15       0.2287
     31  O         20.6890   -9.1130  -10.7890 O.2    15  LEU15      -0.2864
     32  CB        18.8060  -11.6770  -11.7760 C.3    15  LEU15       0.0297
     33  CG        19.7040  -11.3450  -13.0260 C.3    15  LEU15       0.0022
     34  CD1       21.0850  -11.9670  -12.6730 C.3    15  LEU15       0.0001
     35  CD2       19.1520  -12.2240  -14.1800 C.3    15  LEU15       0.0001
     36  N         17.2230  -12.4980    0.3000 N.3    43  VAL43      -0.1231
     37  CA        16.2020  -13.3510   -0.2760 C.3    43  VAL43       0.1692
     38  C         16.6460  -14.7620   -0.6120 C.2    43  VAL43       0.2592
     39  O         15.9050  -15.5450   -1.1750 O.2    43  VAL43      -0.2718
     40  CB        15.5440  -12.6970   -1.5720 C.3    43  VAL43       0.0266
     41  CG1       14.9810  -11.2810   -1.1860 C.3    43  VAL43       0.0020
     42  CG2       16.5510  -12.5050   -2.7170 C.3    43  VAL43       0.0020
     43  N         17.8430  -15.1190   -0.1800 N.am   44  CYS44      -0.1956
     44  CA        18.4600  -16.3920   -0.5380 C.3    44  CYS44       0.1843
     45  C         18.2470  -17.3040    0.6800 C.2    44  CYS44       0.2626
     46  O         18.7620  -17.0290    1.8240 O.2    44  CYS44      -0.2714
     47  CB        19.9630  -16.0740   -0.7340 C.3    44  CYS44       0.0997
     48  SG        20.9490  -17.5360   -1.0470 S.3    44  CYS44      -0.0797
     49  N         17.4680  -18.3820    0.4740 N.am   45  GLY45      -0.1940
     50  CA        17.1290  -19.3130    1.5890 C.3    45  GLY45       0.2014
     51  C         18.3250  -19.9220    2.3330 C.2    45  GLY45       0.2638
     52  O         18.3000  -19.9800    3.5910 O.2    45  GLY45      -0.2714
     53  N         19.3350  -20.4020    1.5780 N.am   46  GLN46      -0.1977
     54  CA        20.5040  -21.0450    2.1660 C.3    46  GLN46       0.1601
     55  C         21.7210  -20.4200    1.5050 C.2    46  GLN46       0.2287
     56  O         22.1310  -20.8210    0.4000 O.2    46  GLN46      -0.2864
     57  CB        20.4660  -22.5640    1.9200 C.3    46  GLN46       0.0394
     58  CG        19.2000  -23.2170    2.4680 C.3    46  GLN46       0.0908
     59  CD        19.0250  -24.6880    2.0800 C.2    46  GLN46       0.2608
     60  OE1       18.3230  -25.0520    1.0860 O.2    46  GLN46      -0.2717
     61  NE2       19.6230  -25.5540    2.8910 N.am   46  GLN46      -0.0878
     62  N         26.4980  -21.2520   -0.2530 N.3    49  GLN49      -0.1231
     63  CA        27.0670  -21.3370   -1.5590 C.3    49  GLN49       0.1698
     64  C         27.2440  -19.9960   -2.2540 C.2    49  GLN49       0.2592
     65  O         28.2260  -19.7870   -2.9490 O.2    49  GLN49      -0.2718
     66  CB        26.2570  -22.3270   -2.4550 C.3    49  GLN49       0.0381
     67  CG        26.8400  -22.4520   -3.8910 C.3    49  GLN49       0.0905
     68  CD        26.1700  -23.6140   -4.6150 C.2    49  GLN49       0.2608
     69  OE1       26.0040  -24.6980   -4.0300 O.2    49  GLN49      -0.2717
     70  NE2       25.5950  -23.3360   -5.7880 N.am   49  GLN49      -0.0878
     71  N         26.2760  -19.0860   -2.0840 N.am   50  LEU50      -0.1980
     72  CA        26.3710  -17.7700   -2.7240 C.3    50  LEU50       0.1596
     73  C         27.5340  -17.0030   -2.0680 C.2    50  LEU50       0.2287
     74  O         28.3250  -16.3710   -2.7650 O.2    50  LEU50      -0.2864
     75  CB        25.0450  -17.0060   -2.5000 C.3    50  LEU50       0.0297
     76  CG        24.9660  -15.5380   -2.9190 C.3    50  LEU50       0.0022
     77  CD1       25.4350  -15.3260   -4.4950 C.3    50  LEU50       0.0001
     78  CD2       23.5170  -14.9870   -2.6910 C.3    50  LEU50       0.0001
     79  N         30.7380  -18.1620   -3.5340 N.3    53  VAL53      -0.1245
     80  CA        30.8920  -17.5350   -4.8400 C.3    53  VAL53       0.1561
     81  C         31.3520  -16.1130   -4.7030 C.2    53  VAL53       0.2260
     82  O         32.3310  -15.7120   -5.4240 O.2    53  VAL53      -0.2867
     83  CB        29.6550  -17.6520   -5.7220 C.3    53  VAL53       0.0252
     84  CG1       29.9320  -16.7780   -7.0410 C.3    53  VAL53       0.0019
     85  CG2       29.4240  -19.0940   -6.1010 C.3    53  VAL53       0.0019
@<TRIPOS>BOND
     1    35    33    1
     2    33    34    1
     3    33    32    1
     4    32    29    1
     5    16    14   am
     6    31    30    2
     7    30    29    1
     8    29    28    1
     9    11    10    2
    10    14    15    2
    11    14    13    1
    12    12    13    1
    13    12     9    1
    14    10     9    1
    15    28    19   am
    16     9     8    1
    17    19    20    2
    18    19    18    1
    19     8     3   am
    20    24    26   ar
    21    24    22   ar
    22    17    18    1
    23    26    27   ar
    24    84    83    1
    25     3     4    2
    26     3     2    1
    27    18    21    1
    28    21    22    1
    29     1     2    1
    30    22    23   ar
    31    85    83    1
    32     2     5    1
    33    27    25   ar
    34    70    68   am
    35    83    80    1
    36    82    81    2
    37    23    25   ar
    38     5     6    1
    39     5     7    1
    40    80    81    1
    41    80    79    1
    42    68    69    2
    43    68    67    1
    44    77    76    1
    45    67    66    1
    46    65    64    2
    47    76    78    1
    48    76    75    1
    49    74    73    2
    50    72    75    1
    51    72    71    1
    52    72    73    1
    53    42    40    1
    54    66    63    1
    55    64    71   am
    56    64    63    1
    57    40    41    1
    58    40    37    1
    59    63    62    1
    60    39    38    2
    61    48    47    1
    62    47    44    1
    63    38    37    1
    64    38    43   am
    65    44    43    1
    66    44    45    1
    67    37    36    1
    68    56    55    2
    69    49    45   am
    70    49    50    1
    71    45    46    2
    72    60    59    2
    73    55    54    1
    74    53    54    1
    75    53    51   am
    76    50    51    1
    77    57    54    1
    78    57    58    1
    79    59    58    1
    80    59    61   am
    81    51    52    2
