@<TRIPOS>MOLECULE
tmp/3ax5C00.pdb
 106 100 0 0 0
SMALL
GASTEIGER

@<TRIPOS>ATOM
      1  N          5.6180   24.1300   27.0080 N.3    10  ALA10      -0.1245
      2  CA         6.1710   22.9430   26.4080 C.3    10  ALA10       0.1562
      3  C          5.3390   21.7470   26.8640 C.2    10  ALA10       0.2260
      4  O          5.0390   20.8650   26.0820 O.2    10  ALA10      -0.2867
      5  CB         7.6860   22.7710   26.7880 C.3    10  ALA10       0.0290
      6  N          1.8480   21.7790   25.0200 N.3    13  VAL13      -0.1231
      7  CA         2.0220   21.3820   23.6210 C.3    13  VAL13       0.1692
      8  C          2.1950   19.8470   23.5090 C.2    13  VAL13       0.2591
      9  O          1.5410   19.1850   22.7040 O.2    13  VAL13      -0.2718
     10  CB         3.2520   22.1280   23.0360 C.3    13  VAL13       0.0266
     11  CG1        3.7580   21.4810   21.7280 C.3    13  VAL13       0.0020
     12  CG2        2.9790   23.6770   22.8360 C.3    13  VAL13       0.0020
     13  N          3.0330   19.2770   24.3700 N.am   14  GLN14      -0.1979
     14  CA         3.2100   17.8250   24.4610 C.3    14  GLN14       0.1601
     15  C          1.9570   17.0430   24.7670 C.2    14  GLN14       0.2287
     16  O          1.6760   15.9880   24.1760 O.2    14  GLN14      -0.2864
     17  CB         4.3130   17.5180   25.4840 C.3    14  GLN14       0.0394
     18  CG         5.6380   17.9100   24.8470 C.3    14  GLN14       0.0908
     19  CD         6.8770   17.7650   25.7530 C.2    14  GLN14       0.2608
     20  OE1        7.9510   18.1030   25.3000 O.2    14  GLN14      -0.2717
     21  NE2        6.7380   17.2130   26.9960 N.am   14  GLN14      -0.0878
     22  N         -0.2100   17.4170   21.7520 N.3    17  PHE17      -0.1227
     23  CA         0.3130   16.5100   20.7280 C.3    17  PHE17       0.1736
     24  C         -0.0310   15.0280   21.0230 C.2    17  PHE17       0.2595
     25  O         -0.6010   14.3400   20.2050 O.2    17  PHE17      -0.2718
     26  CB         1.7850   16.7310   20.6230 C.3    17  PHE17       0.0547
     27  CG         2.5020   15.7390   19.7470 C.ar   17  PHE17      -0.0202
     28  CD1        2.5540   15.9320   18.3810 C.ar   17  PHE17      -0.0042
     29  CD2        3.2200   14.6650   20.3240 C.ar   17  PHE17      -0.0042
     30  CE1        3.2850   15.0370   17.5290 C.ar   17  PHE17      -0.0003
     31  CE2        3.9540   13.7540   19.5030 C.ar   17  PHE17      -0.0003
     32  CZ         3.9700   13.9580   18.0850 C.ar   17  PHE17      -0.0000
     33  N          0.2630   14.5430   22.2100 N.am   18  LEU18      -0.1980
     34  CA         0.0100   13.1300   22.5130 C.3    18  LEU18       0.1596
     35  C         -1.4950   12.8050   22.5070 C.2    18  LEU18       0.2287
     36  O         -1.8880   11.7440   22.0430 O.2    18  LEU18      -0.2864
     37  CB         0.6130   12.7450   23.8600 C.3    18  LEU18       0.0297
     38  CG         2.0260   12.1200   24.0720 C.3    18  LEU18       0.0022
     39  CD1        2.9520   12.0460   22.8670 C.3    18  LEU18       0.0001
     40  CD2        2.7020   12.7290   25.2580 C.3    18  LEU18       0.0001
     41  N         -2.7860   12.5070   18.8450 N.3    21  ILE21      -0.1245
     42  CA        -2.3560   11.2660   18.1960 C.3    21  ILE21       0.1561
     43  C         -3.2570   10.1400   18.6910 C.2    21  ILE21       0.2260
     44  O         -3.8940    9.4400   17.8730 O.2    21  ILE21      -0.2867
     45  CB        -0.8650   10.9880   18.4540 C.3    21  ILE21       0.0252
     46  CG1       -0.0260   11.7070   17.4150 C.3    21  ILE21       0.0019
     47  CG2       -0.5320    9.4720   18.3070 C.3    21  ILE21       0.0019
     48  CD1        1.2580   11.9880   17.9230 C.3    21  ILE21       0.0001
     49  N          1.7080   20.9590   15.1090 N.3    46  VAL46      -0.1231
     50  CA         2.5740   21.4610   16.1730 C.3    46  VAL46       0.1692
     51  C          4.0200   20.9880   16.1240 C.2    46  VAL46       0.2592
     52  O          4.8250   21.4360   16.9480 O.2    46  VAL46      -0.2718
     53  CB         1.9430   21.3520   17.6420 C.3    46  VAL46       0.0266
     54  CG1        0.6590   22.1730   17.6780 C.3    46  VAL46       0.0020
     55  CG2        1.6260   19.8940   18.0400 C.3    46  VAL46       0.0020
     56  N          4.3780   20.1130   15.1690 N.am   47  CYS47      -0.1956
     57  CA         5.7590   19.5960   15.1720 C.3    47  CYS47       0.1843
     58  C          6.7440   20.4750   14.3540 C.2    47  CYS47       0.2626
     59  O          6.4380   20.9650   13.2480 O.2    47  CYS47      -0.2714
     60  CB         5.8060   18.1090   14.7660 C.3    47  CYS47       0.0997
     61  SG         7.5240   17.4230   14.5050 S.3    47  CYS47      -0.0797
     62  N          7.9340   20.6670   14.9210 N.am   48  GLY48      -0.1940
     63  CA         8.9710   21.4280   14.2330 C.3    48  GLY48       0.2014
     64  C          9.5300   20.7900   12.9640 C.2    48  GLY48       0.2638
     65  O          9.8220   21.5020   11.9520 O.2    48  GLY48      -0.2714
     66  N          9.6960   19.4710   13.0060 N.am   49  GLN49      -0.1977
     67  CA        10.2240   18.7310   11.8620 C.3    49  GLN49       0.1601
     68  C          9.1620   17.7560   11.3990 C.2    49  GLN49       0.2287
     69  O          9.2270   16.6000   11.7580 O.2    49  GLN49      -0.2864
     70  CB        11.5400   18.0070   12.2210 C.3    49  GLN49       0.0394
     71  CG        12.3600   17.4800   11.0050 C.3    49  GLN49       0.0908
     72  CD        12.7210   18.5820    9.9750 C.2    49  GLN49       0.2608
     73  OE1       12.3580   18.4800    8.7840 O.2    49  GLN49      -0.2717
     74  NE2       13.4130   19.6460   10.4390 N.am   49  GLN49      -0.0878
     75  N         10.2230   14.5270    9.2200 N.3    52  GLN52      -0.1231
     76  CA        10.7870   13.5280   10.1040 C.3    52  GLN52       0.1698
     77  C          9.6940   12.7160   10.8640 C.2    52  GLN52       0.2592
     78  O          9.9180   11.5410   11.2210 O.2    52  GLN52      -0.2718
     79  CB        11.7330   14.2250   11.0640 C.3    52  GLN52       0.0381
     80  CG        12.4140   13.3350   12.0740 C.3    52  GLN52       0.0905
     81  CD        13.4740   14.0820   12.8840 C.2    52  GLN52       0.2608
     82  OE1       14.0550   15.0830   12.4270 O.2    52  GLN52      -0.2717
     83  NE2       13.7380   13.5920   14.0910 N.am   52  GLN52      -0.0878
     84  N          8.5220   13.3470   11.0770 N.am   53  LEU53      -0.1980
     85  CA         7.3870   12.7770   11.8270 C.3    53  LEU53       0.1596
     86  C          6.4080   12.0590   10.9100 C.2    53  LEU53       0.2287
     87  O          5.8530   11.0240   11.2910 O.2    53  LEU53      -0.2864
     88  CB         6.6640   13.8820   12.6380 C.3    53  LEU53       0.0297
     89  CG         5.2080   13.7480   13.1700 C.3    53  LEU53       0.0022
     90  CD1        4.9780   12.4790   14.0040 C.3    53  LEU53       0.0001
     91  CD2        4.7490   14.9600   13.9890 C.3    53  LEU53       0.0001
     92  N          7.2620    8.3330   10.4720 N.3    56  VAL56      -0.1231
     93  CA         6.7270    7.3420   11.3940 C.3    56  VAL56       0.1692
     94  C          5.2750    7.0150   11.0280 C.2    56  VAL56       0.2591
     95  O          4.8300    5.8660   11.1270 O.2    56  VAL56      -0.2718
     96  CB         6.8280    7.8700   12.8390 C.3    56  VAL56       0.0266
     97  CG1        6.2830    6.8530   13.8590 C.3    56  VAL56       0.0020
     98  CG2        8.2820    8.2850   13.1620 C.3    56  VAL56       0.0020
     99  N          4.5350    8.0170   10.5800 N.am   57  LEU57      -0.1980
    100  CA         3.1240    7.7850   10.2420 C.3    57  LEU57       0.1596
    101  C          2.9050    7.1110    8.8690 C.2    57  LEU57       0.2287
    102  O          1.9050    6.4160    8.6750 O.2    57  LEU57      -0.2864
    103  CB         2.2820    9.0590   10.4430 C.3    57  LEU57       0.0297
    104  CG         2.6430    9.8430   11.7290 C.3    57  LEU57       0.0022
    105  CD1        1.9160   11.1770   11.7910 C.3    57  LEU57       0.0001
    106  CD2        2.4530    9.0510   13.0530 C.3    57  LEU57       0.0001
@<TRIPOS>BOND
     1   102   101    2
     2    73    72    2
     3   101   100    1
     4    75    76    1
     5    72    74   am
     6    72    71    1
     7    76    77    1
     8    76    79    1
     9   100   103    1
    10   100    99    1
    11   103   104    1
    12    92    93    1
    13    99    94   am
    14    77    84   am
    15    77    78    2
    16    86    87    2
    17    86    85    1
    18    71    70    1
    19    94    95    2
    20    94    93    1
    21    79    80    1
    22    84    85    1
    23    93    96    1
    24    68    69    2
    25    68    67    1
    26   104   105    1
    27   104   106    1
    28    85    88    1
    29    67    70    1
    30    67    66    1
    31    65    64    2
    32    80    81    1
    33    82    81    2
    34    88    89    1
    35    96    98    1
    36    96    97    1
    37    81    83   am
    38    64    66   am
    39    64    63    1
    40    89    91    1
    41    89    90    1
    42    59    58    2
    43    63    62    1
    44    58    62   am
    45    58    57    1
    46    61    60    1
    47    60    57    1
    48    49    50    1
    49    56    57    1
    50    56    51   am
    51    51    50    1
    52    51    52    2
    53    50    53    1
    54    46    48    1
    55    46    45    1
    56    30    32   ar
    57    30    28   ar
    58    53    54    1
    59    53    55    1
    60    44    43    2
    61    32    31   ar
    62    42    45    1
    63    42    43    1
    64    42    41    1
    65    47    45    1
    66    28    27   ar
    67    31    29   ar
    68    27    29   ar
    69    27    26    1
    70    25    24    2
    71    26    23    1
    72    23    24    1
    73    23    22    1
    74    24    33   am
    75    11    10    1
    76    36    35    2
    77    33    34    1
    78    35    34    1
    79    34    37    1
    80     9     8    2
    81    12    10    1
    82    39    38    1
    83    10     7    1
    84     8     7    1
    85     8    13   am
    86     7     6    1
    87    37    38    1
    88    38    40    1
    89    16    15    2
    90    13    14    1
    91    14    15    1
    92    14    17    1
    93    18    17    1
    94    18    19    1
    95    20    19    2
    96    19    21   am
    97     4     3    2
    98     2     5    1
    99     2     3    1
   100     2     1    1
