@<TRIPOS>MOLECULE
tmp/3ax5A00.pdb
 109 102 0 0 0
SMALL
GASTEIGER

@<TRIPOS>ATOM
      1  N         -1.2670   27.9900   16.4770 N.3    13  PHE13      -0.1227
      2  CA        -2.0360   28.8170   17.3880 C.3    13  PHE13       0.1736
      3  C         -2.7580   29.9050   16.5750 C.2    13  PHE13       0.2595
      4  O         -3.9750   30.1030   16.7100 O.2    13  PHE13      -0.2718
      5  CB        -1.0960   29.4410   18.4190 C.3    13  PHE13       0.0547
      6  CG        -1.7510   30.4650   19.3210 C.ar   13  PHE13      -0.0202
      7  CD1       -2.5650   30.0620   20.4200 C.ar   13  PHE13      -0.0042
      8  CD2       -1.5350   31.8190   19.1130 C.ar   13  PHE13      -0.0042
      9  CE1       -3.1110   31.0070   21.2990 C.ar   13  PHE13      -0.0003
     10  CE2       -2.1430   32.7710   19.9140 C.ar   13  PHE13      -0.0003
     11  CZ        -2.9110   32.3860   21.0610 C.ar   13  PHE13      -0.0000
     12  N         -2.0050   30.5890   15.7190 N.am   14  LEU14      -0.1980
     13  CA        -2.5590   31.7150   14.9260 C.3    14  LEU14       0.1596
     14  C         -3.5990   31.2540   13.9070 C.2    14  LEU14       0.2287
     15  O         -4.6570   31.8790   13.7820 O.2    14  LEU14      -0.2864
     16  CB        -1.4350   32.4780   14.2240 C.3    14  LEU14       0.0297
     17  CG        -0.5340   33.2580   15.1820 C.3    14  LEU14       0.0022
     18  CD1        0.7980   33.6200   14.4850 C.3    14  LEU14       0.0001
     19  CD2       -1.2510   34.4730   15.7460 C.3    14  LEU14       0.0001
     20  N         -6.9320   30.4020   15.8100 N.3    17  ILE17      -0.1231
     21  CA        -7.6170   31.5950   16.2660 C.3    17  ILE17       0.1692
     22  C         -8.3830   32.2640   15.1250 C.2    17  ILE17       0.2591
     23  O         -9.5400   32.6690   15.2860 O.2    17  ILE17      -0.2718
     24  CB        -6.6140   32.6560   16.8630 C.3    17  ILE17       0.0266
     25  CG1       -6.0410   32.1980   18.2210 C.3    17  ILE17       0.0019
     26  CG2       -7.2950   33.9770   17.0040 C.3    17  ILE17       0.0020
     27  CD1       -6.9930   32.4110   19.4750 C.3    17  ILE17       0.0001
     28  N         -7.7040   32.4310   13.9940 N.am   18  GLN18      -0.1979
     29  CA        -8.3220   32.8860   12.7530 C.3    18  GLN18       0.1601
     30  C         -9.5680   32.0570   12.3190 C.2    18  GLN18       0.2287
     31  O        -10.6380   32.6040   12.0780 O.2    18  GLN18      -0.2864
     32  CB        -7.2800   32.9230   11.6170 C.3    18  GLN18       0.0394
     33  CG        -7.6600   33.9210   10.5850 C.3    18  GLN18       0.0908
     34  CD        -6.8490   33.8160    9.3020 C.2    18  GLN18       0.2608
     35  OE1       -5.8040   34.4330    9.1800 O.2    18  GLN18      -0.2717
     36  NE2       -7.3400   33.0390    8.3440 N.am   18  GLN18      -0.0878
     37  N        -12.3770   32.5670   14.7790 N.3    21  GLU21      -0.1231
     38  CA       -13.0190   33.8520   14.6140 C.3    21  GLU21       0.1699
     39  C        -13.9540   33.8730   13.3770 C.2    21  GLU21       0.2592
     40  O        -15.0820   34.3180   13.4930 O.2    21  GLU21      -0.2718
     41  CB       -11.9800   34.9560   14.4870 C.3    21  GLU21       0.0402
     42  CG       -12.6220   36.3070   14.1180 C.3    21  GLU21       0.1161
     43  CD       -11.6500   37.4680   14.0950 C.2    21  GLU21       0.3649
     44  OE1      -10.4990   37.2890   13.5880 O.co2  21  GLU21      -0.2457
     45  OE2      -12.0650   38.5580   14.5760 O.co2  21  GLU21      -0.2457
     46  N        -13.4710   33.4060   12.2260 N.am   22  GLU22      -0.1979
     47  CA       -14.3220   33.2770   11.0330 C.3    22  GLU22       0.1602
     48  C        -15.5610   32.4000   11.2350 C.2    22  GLU22       0.2287
     49  O        -16.6720   32.8670   10.9870 O.2    22  GLU22      -0.2864
     50  CB       -13.5130   32.7550    9.8580 C.3    22  GLU22       0.0415
     51  CG       -12.3350   33.6710    9.4730 C.3    22  GLU22       0.1163
     52  CD       -11.3780   32.9840    8.5250 C.2    22  GLU22       0.3649
     53  OE1      -11.6480   31.8280    8.1630 O.co2  22  GLU22      -0.2457
     54  OE2      -10.3620   33.5700    8.1150 O.co2  22  GLU22      -0.2457
     55  N        -17.0990   31.6620   13.9060 N.3    24  LEU24      -0.1245
     56  CA       -18.0560   32.2510   14.8200 C.3    24  LEU24       0.1561
     57  C        -18.7860   33.4030   14.1550 C.2    24  LEU24       0.2260
     58  O        -19.9450   33.6980   14.4930 O.2    24  LEU24      -0.2867
     59  CB       -17.4110   32.7470   16.1170 C.3    24  LEU24       0.0270
     60  CG       -16.8370   31.7510   17.1300 C.3    24  LEU24       0.0019
     61  CD1      -16.0180   32.5510   18.1450 C.3    24  LEU24       0.0001
     62  CD2      -17.8840   30.9010   17.8180 C.3    24  LEU24       0.0001
     63  N        -10.9370   27.5530   18.6310 N.3    36  LEU36      -0.1245
     64  CA       -10.4980   28.3210   19.8320 C.3    36  LEU36       0.1561
     65  C         -9.9630   27.3890   20.9240 C.2    36  LEU36       0.2260
     66  O         -8.9550   27.7020   21.5270 O.2    36  LEU36      -0.2867
     67  CB       -11.5930   29.2640   20.3930 C.3    36  LEU36       0.0270
     68  CG       -12.0300   30.3960   19.4070 C.3    36  LEU36       0.0019
     69  CD1      -13.2410   31.1960   19.9480 C.3    36  LEU36       0.0001
     70  CD2      -10.8780   31.3260   18.9240 C.3    36  LEU36       0.0001
     71  N         -4.8770   35.1210   29.9850 N.3    48  GLN48      -0.1231
     72  CA        -5.0690   36.3420   29.2450 C.3    48  GLN48       0.1698
     73  C         -5.8910   36.1660   27.9650 C.2    48  GLN48       0.2592
     74  O         -6.7040   37.0510   27.6090 O.2    48  GLN48      -0.2718
     75  CB        -3.7450   36.9430   28.8280 C.3    48  GLN48       0.0381
     76  CG        -3.9670   38.3250   28.1710 C.3    48  GLN48       0.0905
     77  CD        -3.7890   39.4890   29.1690 C.2    48  GLN48       0.2608
     78  OE1       -2.6590   39.8260   29.5410 O.2    48  GLN48      -0.2717
     79  NE2       -4.8920   40.1160   29.5700 N.am   48  GLN48      -0.0878
     80  N         -5.6550   35.0560   27.2530 N.am   49  LEU49      -0.1980
     81  CA        -6.3920   34.7840   26.0420 C.3    49  LEU49       0.1596
     82  C         -7.8500   34.6100   26.4260 C.2    49  LEU49       0.2287
     83  O         -8.7420   35.0440   25.7120 O.2    49  LEU49      -0.2864
     84  CB        -5.8740   33.5080   25.3720 C.3    49  LEU49       0.0297
     85  CG        -6.6900   32.8520   24.2820 C.3    49  LEU49       0.0022
     86  CD1       -6.8700   33.7520   23.1040 C.3    49  LEU49       0.0001
     87  CD2       -5.9990   31.5980   23.8310 C.3    49  LEU49       0.0001
     88  N         -9.5140   37.9310   27.1660 N.3    52  VAL52      -0.1231
     89  CA        -9.7980   38.6310   25.8760 C.3    52  VAL52       0.1692
     90  C        -11.0360   37.9920   25.2120 C.2    52  VAL52       0.2591
     91  O        -11.9810   38.6500   24.8290 O.2    52  VAL52      -0.2718
     92  CB        -8.5600   38.5440   24.9520 C.3    52  VAL52       0.0266
     93  CG1       -8.8510   38.9820   23.5570 C.3    52  VAL52       0.0020
     94  CG2       -7.4260   39.3950   25.5440 C.3    52  VAL52       0.0020
     95  N        -11.0570   36.6850   25.0990 N.am   53  LEU53      -0.1980
     96  CA       -12.2410   36.0080   24.5920 C.3    53  LEU53       0.1596
     97  C        -13.5350   36.2960   25.3920 C.2    53  LEU53       0.2287
     98  O        -14.6230   36.4420   24.8260 O.2    53  LEU53      -0.2864
     99  CB       -11.9630   34.5040   24.4740 C.3    53  LEU53       0.0297
    100  CG       -10.9560   34.0640   23.3980 C.3    53  LEU53       0.0022
    101  CD1      -10.6600   32.5540   23.5400 C.3    53  LEU53       0.0001
    102  CD2      -11.4880   34.3900   21.9960 C.3    53  LEU53       0.0001
    103  N        -15.1200   39.4720   24.1110 N.3    56  THR56      -0.1218
    104  CA       -15.2960   39.4390   22.6710 C.3    56  THR56       0.1862
    105  C        -16.4840   38.5350   22.3000 C.2    56  THR56       0.2287
    106  O        -17.0400   38.6520   21.2370 O.2    56  THR56      -0.2866
    107  CB       -13.9180   38.8370   22.1090 C.3    56  THR56       0.1770
    108  OG1      -13.0460   39.9260   21.7360 O.3    56  THR56      -0.2211
    109  CG2      -14.0910   37.9650   20.9310 C.3    56  THR56       0.0375
@<TRIPOS>BOND
     1    54    52   ar
     2    53    52   ar
     3    36    34   am
     4    52    51    1
     5    35    34    2
     6    34    33    1
     7    51    50    1
     8    50    47    1
     9    33    32    1
    10    49    48    2
    11    47    48    1
    12    47    46    1
    13    32    29    1
    14    31    30    2
    15    46    39   am
    16    30    29    1
    17    29    28    1
    18    39    40    2
    19    39    38    1
    20    44    43   ar
    21    15    14    2
    22    55    56    1
    23    14    13    1
    24    28    22   am
    25    43    42    1
    26    43    45   ar
    27    42    41    1
    28    57    58    2
    29    57    56    1
    30    16    13    1
    31    16    17    1
    32    18    17    1
    33    41    38    1
    34    38    37    1
    35    56    59    1
    36    13    12    1
    37    22    23    2
    38    22    21    1
    39    17    19    1
    40    12     3   am
    41    20    21    1
    42    59    60    1
    43    21    24    1
    44     1     2    1
    45     3     4    2
    46     3     2    1
    47    24    26    1
    48    24    25    1
    49    60    62    1
    50    60    61    1
    51     2     5    1
    52    25    27    1
    53     5     6    1
    54    63    64    1
    55    70    68    1
    56     8     6   ar
    57     8    10   ar
    58     6     7   ar
    59    68    69    1
    60    68    67    1
    61    64    67    1
    62    64    65    1
    63    10    11   ar
    64     7     9   ar
    65    65    66    2
    66   109   107    1
    67    11     9   ar
    68   106   105    2
    69   108   107    1
    70   102   100    1
    71   107   104    1
    72   105   104    1
    73   104   103    1
    74    86    85    1
    75   100   101    1
    76   100    99    1
    77    93    92    1
    78    87    85    1
    79    85    84    1
    80    99    96    1
    81    96    95    1
    82    96    97    1
    83    98    97    2
    84    91    90    2
    85    92    94    1
    86    92    89    1
    87    95    90   am
    88    90    89    1
    89    84    81    1
    90    83    82    2
    91    89    88    1
    92    81    82    1
    93    81    80    1
    94    80    73   am
    95    74    73    2
    96    73    72    1
    97    76    75    1
    98    76    77    1
    99    75    72    1
   100    77    78    2
   101    77    79   am
   102    72    71    1
