@<TRIPOS>MOLECULE
tmp/3ax6B00.pdb
 129 121 0 0 0
SMALL
GASTEIGER

@<TRIPOS>ATOM
      1  N         26.4740   43.2070   57.5690 N.3    97  LYS97      -0.1245
      2  CA        27.6030   43.5380   56.7280 C.3    97  LYS97       0.1561
      3  C         28.7800   44.2010   57.4290 C.2    97  LYS97       0.2260
      4  O         29.9290   43.9890   57.0450 O.2    97  LYS97      -0.2867
      5  CB        27.1320   44.3870   55.5550 C.3    97  LYS97       0.0271
      6  CG        26.4030   43.5770   54.5040 C.3    97  LYS97       0.0035
      7  CD        26.2930   44.3460   53.2010 C.3    97  LYS97       0.0206
      8  CE        25.8010   43.4520   52.0880 C.3    97  LYS97       0.1093
      9  NZ        25.8260   44.1590   50.7790 N.3    97  LYS97      -0.1314
     10  N         37.9820   46.0110   51.5590 N.3   112  PRO112     -0.2116
     11  CA        37.9630   47.4550   51.3010 C.3   112  PRO112      0.1372
     12  C         37.9310   48.2610   52.5950 C.2   112  PRO112      0.2244
     13  O         37.4240   47.7890   53.6130 O.2   112  PRO112     -0.2868
     14  CB        36.6810   47.6500   50.5000 C.3   112  PRO112      0.0268
     15  CG        36.5630   46.3790   49.7560 C.3   112  PRO112      0.0207
     16  CD        36.9200   45.3370   50.7910 C.3   112  PRO112      0.0892
     17  N         31.0070   54.7020   48.9930 N.3   132  VAL132     -0.1245
     18  CA        29.9380   53.7130   48.9840 C.3   132  VAL132      0.1561
     19  C         29.2980   53.4970   50.3490 C.2   132  VAL132      0.2260
     20  O         29.9770   53.3480   51.3660 O.2   132  VAL132     -0.2867
     21  CB        30.4360   52.3500   48.4220 C.3   132  VAL132      0.0252
     22  CG1       29.2740   51.3800   48.2830 C.3   132  VAL132      0.0019
     23  CG2       31.0960   52.5580   47.0690 C.3   132  VAL132      0.0019
     24  N         26.3390   51.2180   52.4690 N.3   134  LYS134     -0.1245
     25  CA        25.6060   49.9660   52.4340 C.3   134  LYS134      0.1561
     26  C         24.7850   49.8100   53.7000 C.2   134  LYS134      0.2260
     27  O         25.1640   50.3050   54.7640 O.2   134  LYS134     -0.2867
     28  CB        26.5760   48.7830   52.3170 C.3   134  LYS134      0.0271
     29  CG        27.3840   48.7390   51.0280 C.3   134  LYS134      0.0035
     30  CD        28.2510   47.4800   50.9660 C.3   134  LYS134      0.0206
     31  CE        29.0140   47.3920   49.6450 C.3   134  LYS134      0.1093
     32  NZ        29.8840   46.1860   49.5570 N.3   134  LYS134     -0.1314
     33  N         22.8710   48.9230   48.7460 N.3   140  VAL140     -0.1245
     34  CA        24.1680   49.5360   48.4870 C.3   140  VAL140      0.1561
     35  C         23.9970   50.8000   47.6360 C.2   140  VAL140      0.2260
     36  O         23.5900   50.7340   46.4750 O.2   140  VAL140     -0.2867
     37  CB        25.1080   48.5270   47.7790 C.3   140  VAL140      0.0252
     38  CG1       24.3540   47.7920   46.6920 C.3   140  VAL140      0.0019
     39  CG2       26.3110   49.2440   47.1960 C.3   140  VAL140      0.0019
     40  N         32.0090   52.5090   52.7910 N.3   160  GLU160     -0.1231
     41  CA        33.1050   51.7580   52.1800 C.3   160  GLU160      0.1699
     42  C         33.7240   52.6510   51.1150 C.2   160  GLU160      0.2592
     43  O         33.0200   53.3800   50.4250 O.2   160  GLU160     -0.2718
     44  CB        32.6070   50.4860   51.4840 C.3   160  GLU160      0.0402
     45  CG        32.2470   49.3020   52.3680 C.3   160  GLU160      0.1161
     46  CD        32.1220   48.0130   51.5570 C.2   160  GLU160      0.3649
     47  OE1       31.7330   46.9680   52.1230 O.co2 160  GLU160     -0.2457
     48  OE2       32.4210   48.0520   50.3430 O.co2 160  GLU160     -0.2457
     49  N         35.0400   52.5920   50.9820 N.am  161  GLU161     -0.1966
     50  CA        35.7220   53.3740   49.9660 C.3   161  GLU161      0.1733
     51  C         35.2080   52.8650   48.6330 C.2   161  GLU161      0.2616
     52  O         34.9330   51.6740   48.4920 O.2   161  GLU161     -0.2715
     53  CB        37.2300   53.1300   50.0170 C.3   161  GLU161      0.0429
     54  CG        37.5960   51.6420   49.9860 C.3   161  GLU161      0.1163
     55  CD        39.0480   51.3910   49.6190 C.2   161  GLU161      0.3649
     56  OE1       39.6320   50.4080   50.1300 O.co2 161  GLU161     -0.2457
     57  OE2       39.6000   52.1650   48.8090 O.co2 161  GLU161     -0.2457
     58  N         35.0580   53.7570   47.6620 N.am  162  PHE162     -0.1960
     59  CA        34.6260   53.3190   46.3470 C.3   162  PHE162      0.1771
     60  C         35.8600   52.6380   45.7500 C.2   162  PHE162      0.2619
     61  O         36.8900   53.2850   45.5410 O.2   162  PHE162     -0.2715
     62  CB        34.2370   54.5040   45.4670 C.3   162  PHE162      0.0574
     63  CG        33.9190   54.1120   44.0600 C.ar  162  PHE162     -0.0200
     64  CD1       32.6740   53.5810   43.7370 C.ar  162  PHE162     -0.0042
     65  CD2       34.8800   54.2150   43.0660 C.ar  162  PHE162     -0.0042
     66  CE1       32.3930   53.1570   42.4440 C.ar  162  PHE162     -0.0003
     67  CE2       34.6100   53.7930   41.7710 C.ar  162  PHE162     -0.0003
     68  CZ        33.3670   53.2640   41.4590 C.ar  162  PHE162     -0.0000
     69  N         35.7630   51.3410   45.4870 N.am  163  VAL163     -0.1977
     70  CA        36.8900   50.6000   44.9390 C.3   163  VAL163      0.1596
     71  C         36.9910   50.7130   43.4230 C.2   163  VAL163      0.2287
     72  O         35.9930   50.6280   42.7090 O.2   163  VAL163     -0.2864
     73  CB        36.8120   49.1020   45.3320 C.3   163  VAL163      0.0276
     74  CG1       37.9730   48.3290   44.7210 C.3   163  VAL163      0.0022
     75  CG2       36.8350   48.9680   46.8470 C.3   163  VAL163      0.0022
     76  N         37.6240   48.9980   40.5670 N.3   165  ILE165     -0.1245
     77  CA        37.6320   47.5900   40.1960 C.3   165  ILE165      0.1561
     78  C         38.1480   47.2610   38.8020 C.2   165  ILE165      0.2260
     79  O         37.7000   47.8360   37.8100 O.2   165  ILE165     -0.2867
     80  CB        36.2070   46.9880   40.3430 C.3   165  ILE165      0.0252
     81  CG1       35.6880   47.2270   41.7660 C.3   165  ILE165      0.0019
     82  CG2       36.2290   45.4910   40.0330 C.3   165  ILE165      0.0019
     83  CD1       34.2200   46.8910   41.9570 C.3   165  ILE165      0.0001
     84  N         35.6220   41.7290   38.9260 N.3   168  GLU168     -0.1245
     85  CA        34.9530   41.2060   40.1070 C.3   168  GLU168      0.1567
     86  C         35.0430   39.6890   39.9840 C.2   168  GLU168      0.2260
     87  O         34.6850   39.1150   38.9530 O.2   168  GLU168     -0.2867
     88  CB        33.5010   41.6870   40.1680 C.3   168  GLU168      0.0388
     89  CG        33.4090   43.2090   40.3060 C.3   168  GLU168      0.1160
     90  CD        32.0120   43.7170   40.6220 C.2   168  GLU168      0.3649
     91  OE1       31.4150   43.2470   41.6100 O.co2 168  GLU168     -0.2457
     92  OE2       31.5210   44.5990   39.8860 O.co2 168  GLU168     -0.2457
     93  N         32.7780   36.5070   47.1900 N.3   225  GLU225     -0.1245
     94  CA        32.9050   37.5270   46.1460 C.3   225  GLU225      0.1567
     95  C         34.1160   38.4040   46.4600 C.2   225  GLU225      0.2260
     96  O         34.3170   38.8260   47.6040 O.2   225  GLU225     -0.2867
     97  CB        31.6700   38.4290   46.0840 C.3   225  GLU225      0.0388
     98  CG        30.3300   37.7180   46.0130 C.3   225  GLU225      0.1160
     99  CD        29.1880   38.6660   45.6490 C.2   225  GLU225      0.3649
    100  OE1       29.2480   39.8590   46.0350 O.co2 225  GLU225     -0.2457
    101  OE2       28.2290   38.2100   44.9840 O.co2 225  GLU225     -0.2457
    102  N         37.1060   41.5290   44.7490 N.3   226  PHE226     -0.1241
    103  CA        37.3830   42.5740   43.7750 C.3   226  PHE226      0.1605
    104  C         38.8650   42.5200   43.4760 C.2   226  PHE226      0.2264
    105  O         39.6730   42.4740   44.3980 O.2   226  PHE226     -0.2867
    106  CB        37.1090   43.9950   44.3150 C.3   226  PHE226      0.0534
    107  CG        35.6800   44.2720   44.6900 C.ar  226  PHE226     -0.0203
    108  CD1       34.6260   43.8090   43.9060 C.ar  226  PHE226     -0.0042
    109  CD2       35.3920   45.0460   45.8130 C.ar  226  PHE226     -0.0042
    110  CE1       33.3040   44.1130   44.2340 C.ar  226  PHE226     -0.0003
    111  CE2       34.0750   45.3580   46.1500 C.ar  226  PHE226     -0.0003
    112  CZ        33.0270   44.8890   45.3570 C.ar  226  PHE226     -0.0000
    113  N         34.6810   41.0800   49.1310 N.3   236  ASN236     -0.1225
    114  CA        33.5440   41.9750   49.2180 C.3   236  ASN236      0.1785
    115  C         32.3920   41.3820   50.0210 C.2   236  ASN236      0.2597
    116  O         31.6950   42.1010   50.7460 O.2   236  ASN236     -0.2718
    117  CB        33.1120   42.3100   47.7850 C.3   236  ASN236      0.1169
    118  CG        31.7740   42.9910   47.7130 C.2   236  ASN236      0.2627
    119  OD1       31.5310   43.9880   48.3870 O.2   236  ASN236     -0.2716
    120  ND2       30.8910   42.4600   46.8690 N.am  236  ASN236     -0.0877
    121  N         32.1770   40.0770   49.8820 N.am  237  GLU237     -0.1979
    122  CA        31.1080   39.4190   50.6170 C.3   237  GLU237      0.1602
    123  C         31.2100   37.9080   50.6790 C.2   237  GLU237      0.2287
    124  O         31.8520   37.2820   49.8430 O.2   237  GLU237     -0.2864
    125  CB        29.7400   39.8020   50.0570 C.3   237  GLU237      0.0415
    126  CG        28.8840   40.4910   51.1070 C.3   237  GLU237      0.1163
    127  CD        27.4380   40.0470   51.0830 C.2   237  GLU237      0.3649
    128  OE1       26.7330   40.3590   50.0930 O.co2 237  GLU237     -0.2457
    129  OE2       27.0140   39.3820   52.0600 O.co2 237  GLU237     -0.2457
@<TRIPOS>BOND
     1    79    78    2
     2    78    77    1
     3    84    85    1
     4    87    86    2
     5    92    90   ar
     6    86    85    1
     7    82    80    1
     8    85    88    1
     9    88    89    1
    10    77    80    1
    11    77    76    1
    12    89    90    1
    13    80    81    1
    14    90    91   ar
    15    68    67   ar
    16    68    66   ar
    17    81    83    1
    18    67    65   ar
    19    66    64   ar
    20    72    71    2
    21    65    63   ar
    22    71    70    1
    23   104   103    1
    24   104   105    2
    25    64    63   ar
    26   103   106    1
    27   103   102    1
    28   108   110   ar
    29   108   107   ar
    30    63    62    1
    31   110   112   ar
    32   106   107    1
    33   107   109   ar
    34    74    73    1
    35    70    73    1
    36    70    69    1
    37   101    99   ar
    38    73    75    1
    39   112   111   ar
    40    62    59    1
    41    69    60   am
    42    61    60    2
    43    99    98    1
    44    99   100   ar
    45    60    59    1
    46   109   111   ar
    47    98    97    1
    48    97    94    1
    49    94    95    1
    50    94    93    1
    51    59    58    1
    52    95    96    2
    53    36    35    2
    54    38    37    1
    55   120   118   am
    56    23    21    1
    57    39    37    1
    58    35    34    1
    59    58    51   am
    60   118   117    1
    61   118   119    2
    62    37    34    1
    63   117   114    1
    64    22    21    1
    65    21    18    1
    66    34    33    1
    67    52    51    2
    68    51    50    1
    69    57    55   ar
    70    18    17    1
    71    18    19    1
    72   113   114    1
    73   114   115    1
    74    32    31    1
    75    55    54    1
    76    55    56   ar
    77    31    30    1
    78    15    14    1
    79    15    16    1
    80   124   123    2
    81   121   115   am
    82   121   122    1
    83    50    53    1
    84    50    49    1
    85    54    53    1
    86   115   116    2
    87   125   122    1
    88   125   126    1
    89   128   127   ar
    90    48    46   ar
    91    19    20    2
    92    43    42    2
    93    14    11    1
    94   122   123    1
    95     9     8    1
    96    16    10    1
    97    30    29    1
    98    49    42   am
    99    29    28    1
   100   127   126    1
   101   127   129   ar
   102    42    41    1
   103    11    10    1
   104    11    12    1
   105    44    41    1
   106    44    45    1
   107    46    47   ar
   108    46    45    1
   109     8     7    1
   110    41    40    1
   111    28    25    1
   112    25    24    1
   113    25    26    1
   114    12    13    2
   115     7     6    1
   116    26    27    2
   117     6     5    1
   118     5     2    1
   119     2     3    1
   120     2     1    1
   121     4     3    2
