@<TRIPOS>MOLECULE
tmp/3axeA01.pdb
 143 139 0 0 0
SMALL
GASTEIGER

@<TRIPOS>ATOM
      1  N         15.4500   -6.1800  -21.2950 N.3     8  GLU8       -0.1245
      2  CA        15.4540   -5.0780  -20.3490 C.3     8  GLU8        0.1567
      3  C         14.6570   -3.9090  -20.8860 C.2     8  GLU8        0.2260
      4  O         14.8900   -3.4410  -22.0120 O.2     8  GLU8       -0.2867
      5  CB        16.8800   -4.6100  -20.0450 C.3     8  GLU8        0.0388
      6  CG        16.9440   -3.4010  -19.0950 C.3     8  GLU8        0.1160
      7  CD        18.3410   -3.1720  -18.5510 C.2     8  GLU8        0.3649
      8  OE1       18.8990   -4.0960  -17.9270 O.co2   8  GLU8       -0.2457
      9  OE2       18.8820   -2.0640  -18.7350 O.co2   8  GLU8       -0.2457
     10  N         14.0990   -2.0920  -10.9460 N.3    37  PHE37      -0.1241
     11  CA        15.1370   -1.3370  -10.2830 C.3    37  PHE37       0.1605
     12  C         15.3140    0.0800  -10.7780 C.2    37  PHE37       0.2264
     13  O         14.9060    0.4300  -11.8840 O.2    37  PHE37      -0.2867
     14  CB        16.4910   -2.0780  -10.3790 C.3    37  PHE37       0.0534
     15  CG        17.0130   -2.3070  -11.7840 C.ar   37  PHE37      -0.0203
     16  CD1       16.4460   -3.2780  -12.6170 C.ar   37  PHE37      -0.0042
     17  CD2       18.1460   -1.6140  -12.2320 C.ar   37  PHE37      -0.0042
     18  CE1       17.0010   -3.5610  -13.8670 C.ar   37  PHE37      -0.0003
     19  CE2       18.7110   -1.8940  -13.4950 C.ar   37  PHE37      -0.0003
     20  CZ        18.1400   -2.8690  -14.3070 C.ar   37  PHE37      -0.0000
     21  N         18.1550    2.8910  -11.6260 N.3    39  TYR39      -0.1241
     22  CA        19.5470    2.8170  -12.0490 C.3    39  TYR39       0.1605
     23  C         20.0840    4.1110  -12.6410 C.2    39  TYR39       0.2264
     24  O         19.4550    4.7070  -13.5120 O.2    39  TYR39      -0.2867
     25  CB        19.6910    1.6990  -13.1000 C.3    39  TYR39       0.0534
     26  CG        21.1280    1.3430  -13.4340 C.ar   39  TYR39      -0.0201
     27  CD1       21.9610    0.7980  -12.4640 C.ar   39  TYR39      -0.0009
     28  CD2       21.6480    1.5460  -14.7200 C.ar   39  TYR39      -0.0009
     29  CE1       23.2760    0.4640  -12.7460 C.ar   39  TYR39       0.0417
     30  CE2       22.9860    1.2120  -15.0160 C.ar   39  TYR39       0.0417
     31  CZ        23.7800    0.6740  -14.0210 C.ar   39  TYR39       0.1957
     32  OH        25.0950    0.3440  -14.2670 O.3    39  TYR39      -0.2866
     33  N         22.3410    5.3480  -15.0750 N.3    41  ASN41      -0.1240
     34  CA        23.0760    4.7960  -16.2040 C.3    41  ASN41       0.1653
     35  C         24.5280    5.2420  -16.2190 C.2    41  ASN41       0.2266
     36  O         24.8290    6.4230  -16.0290 O.2    41  ASN41      -0.2867
     37  CB        22.4120    5.1650  -17.5310 C.3    41  ASN41       0.1155
     38  CG        22.7880    4.2090  -18.6490 C.2    41  ASN41       0.2627
     39  OD1       22.6190    4.5200  -19.8290 O.2    41  ASN41      -0.2716
     40  ND2       23.2830    3.0360  -18.2820 N.am   41  ASN41      -0.0877
     41  N         28.1530    1.5000  -14.0810 N.3    44  GLU44      -0.1245
     42  CA        29.0060    0.3370  -14.3030 C.3    44  GLU44       0.1567
     43  C         30.3980    0.6560  -14.8210 C.2    44  GLU44       0.2260
     44  O         31.2600   -0.2300  -14.8860 O.2    44  GLU44      -0.2867
     45  CB        28.3110   -0.6500  -15.2570 C.3    44  GLU44       0.0388
     46  CG        28.2630   -0.2620  -16.7480 C.3    44  GLU44       0.1160
     47  CD        27.3200    0.8980  -17.1110 C.2    44  GLU44       0.3649
     48  OE1       26.4320    1.2730  -16.3130 O.co2  44  GLU44      -0.2457
     49  OE2       27.4700    1.4340  -18.2340 O.co2  44  GLU44      -0.2457
     50  N         28.3560    4.7590   -7.9930 N.3    51  TRP51      -0.1241
     51  CA        27.3860    3.7630   -8.4180 C.3    51  TRP51       0.1605
     52  C         26.1170    4.1480   -7.6650 C.2    51  TRP51       0.2264
     53  O         26.1580    4.3900   -6.4600 O.2    51  TRP51      -0.2867
     54  CB        27.8220    2.3560   -8.0010 C.3    51  TRP51       0.0550
     55  CG        27.0090    1.2600   -8.6360 C.ar   51  TRP51       0.0003
     56  CD1       25.6650    1.0470   -8.5100 C.ar   51  TRP51       0.0946
     57  CD2       27.4850    0.2740   -9.5570 C.ar   51  TRP51       0.0152
     58  NE1       25.2750   -0.0080   -9.3030 N.ar   51  TRP51      -0.2442
     59  CE2       26.3740   -0.4990   -9.9570 C.ar   51  TRP51       0.0810
     60  CE3       28.7460   -0.0270  -10.0880 C.ar   51  TRP51       0.0012
     61  CZ2       26.4830   -1.5530  -10.8650 C.ar   51  TRP51       0.0191
     62  CZ3       28.8560   -1.0760  -10.9930 C.ar   51  TRP51       0.0001
     63  CH2       27.7280   -1.8270  -11.3730 C.ar   51  TRP51       0.0015
     64  N         22.1010    2.7960   -7.4430 N.3    53  GLU53      -0.1245
     65  CA        21.1150    1.8070   -7.8830 C.3    53  GLU53       0.1567
     66  C         20.2880    1.2970   -6.7020 C.2    53  GLU53       0.2260
     67  O         20.8050    1.1400   -5.5950 O.2    53  GLU53      -0.2867
     68  CB        21.8560    0.6310   -8.5350 C.3    53  GLU53       0.0388
     69  CG        20.9460   -0.5310   -8.9110 C.3    53  GLU53       0.1160
     70  CD        21.6740   -1.6590   -9.6160 C.2    53  GLU53       0.3649
     71  OE1       22.8830   -1.5210   -9.9120 O.co2  53  GLU53      -0.2457
     72  OE2       21.0350   -2.7060   -9.8770 O.co2  53  GLU53      -0.2457
     73  N         22.7260   -0.2290   -4.0260 N.3    71  ILE71      -0.1245
     74  CA        24.1230   -0.3310   -4.3970 C.3    71  ILE71       0.1561
     75  C         24.7210    1.0580   -4.5470 C.2    71  ILE71       0.2260
     76  O         24.2890    1.8590   -5.3760 O.2    71  ILE71      -0.2867
     77  CB        24.3220   -1.1100   -5.7150 C.3    71  ILE71       0.0252
     78  CG1       23.6810   -2.5000   -5.6040 C.3    71  ILE71       0.0019
     79  CG2       25.8350   -1.2440   -6.0020 C.3    71  ILE71       0.0019
     80  CD1       23.8900   -3.3790   -6.8330 C.3    71  ILE71       0.0001
     81  N         13.8700    0.7380  -14.4010 N.3   134  ARG134     -0.1245
     82  CA        14.1470   -0.3860  -15.2850 C.3   134  ARG134      0.1563
     83  C         13.5850   -1.6950  -14.7840 C.2   134  ARG134      0.2260
     84  O         13.2780   -1.8460  -13.6050 O.2   134  ARG134     -0.2867
     85  CB        15.6630   -0.5540  -15.4420 C.3   134  ARG134      0.0307
     86  CG        16.3800    0.7190  -15.8870 C.3   134  ARG134      0.0489
     87  CD        17.7750    0.4060  -16.4360 C.3   134  ARG134      0.2205
     88  NE        18.3390    1.5860  -17.0770 N.pl3 134  ARG134     -0.0865
     89  CZ        19.4170    1.5530  -17.8530 C.cat 134  ARG134      0.5346
     90  NH1       20.0370    0.3950  -18.0720 N.pl3 134  ARG134      0.1354
     91  NH2       19.8670    2.6720  -18.4080 N.pl3 134  ARG134      0.1354
     92  N         14.2970   -6.0030  -15.7930 N.3   136  ASN136     -0.1240
     93  CA        14.9490   -6.9410  -16.6770 C.3   136  ASN136      0.1653
     94  C         14.7750   -8.3710  -16.2360 C.2   136  ASN136      0.2266
     95  O         14.3340   -8.6450  -15.1220 O.2   136  ASN136     -0.2867
     96  CB        16.4280   -6.5650  -16.9640 C.3   136  ASN136      0.1155
     97  CG        17.3510   -6.6770  -15.7760 C.2   136  ASN136      0.2627
     98  OD1       17.0240   -7.2290  -14.7330 O.2   136  ASN136     -0.2716
     99  ND2       18.5660   -6.1610  -15.9570 N.am  136  ASN136     -0.0877
    100  N         16.9030  -12.0610  -16.6960 N.3   138  TRP138     -0.1241
    101  CA        18.1590  -12.6550  -17.1210 C.3   138  TRP138      0.1605
    102  C         18.5250  -13.8350  -16.2390 C.2   138  TRP138      0.2264
    103  O         17.7110  -14.2880  -15.4500 O.2   138  TRP138     -0.2867
    104  CB        19.2760  -11.5900  -17.0880 C.3   138  TRP138      0.0550
    105  CG        19.4550  -10.8350  -15.7620 C.ar  138  TRP138      0.0003
    106  CD1       18.5860   -9.9290  -15.1930 C.ar  138  TRP138      0.0946
    107  CD2       20.5830  -10.9140  -14.8760 C.ar  138  TRP138      0.0152
    108  NE1       19.1080   -9.4440  -14.0040 N.ar  138  TRP138     -0.2442
    109  CE2       20.3330  -10.0310  -13.7910 C.ar  138  TRP138      0.0810
    110  CE3       21.7830  -11.6410  -14.8930 C.ar  138  TRP138      0.0012
    111  CZ2       21.2410   -9.8620  -12.7380 C.ar  138  TRP138      0.0191
    112  CZ3       22.6870  -11.4710  -13.8420 C.ar  138  TRP138      0.0001
    113  CH2       22.4080  -10.5870  -12.7810 C.ar  138  TRP138      0.0015
    114  N         22.4060   -5.2580  -24.6180 N.3   193  TYR193     -0.1227
    115  CA        23.7560   -5.3250  -24.0760 C.3   193  TYR193      0.1736
    116  C         23.8090   -6.4270  -23.0450 C.2   193  TYR193      0.2596
    117  O         22.8250   -7.1330  -22.8360 O.2   193  TYR193     -0.2718
    118  CB        24.1350   -3.9830  -23.4260 C.3   193  TYR193      0.0548
    119  CG        22.9830   -3.2440  -22.7570 C.ar  193  TYR193     -0.0200
    120  CD1       22.4210   -2.1140  -23.3530 C.ar  193  TYR193     -0.0009
    121  CD2       22.4580   -3.6740  -21.5410 C.ar  193  TYR193     -0.0009
    122  CE1       21.3620   -1.4200  -22.7520 C.ar  193  TYR193      0.0417
    123  CE2       21.3880   -2.9930  -20.9280 C.ar  193  TYR193      0.0417
    124  CZ        20.8500   -1.8630  -21.5440 C.ar  193  TYR193      0.1957
    125  OH        19.8040   -1.1640  -20.9690 O.3   193  TYR193     -0.2866
    126  N         24.9600   -6.5840  -22.4080 N.am  194  THR194     -0.1939
    127  CA        25.1100   -7.5870  -21.3720 C.3   194  THR194      0.2028
    128  C         26.1920   -7.1030  -20.4130 C.2   194  THR194      0.2642
    129  O         26.6750   -5.9720  -20.5340 O.2   194  THR194     -0.2714
    130  CB        25.4700   -8.9670  -21.9840 C.3   194  THR194      0.1808
    131  OG1       25.4330   -9.9740  -20.9620 O.3   194  THR194     -0.2208
    132  CG2       26.8750   -8.9320  -22.6130 C.3   194  THR194      0.0379
    133  N         26.5360   -7.9330  -19.4400 N.am  195  PHE195     -0.1973
    134  CA        27.5780   -7.5970  -18.4730 C.3   195  PHE195      0.1639
    135  C         28.1380   -8.8910  -17.8910 C.2   195  PHE195      0.2290
    136  O         27.5170   -9.9530  -17.9980 O.2   195  PHE195     -0.2864
    137  CB        27.0220   -6.6690  -17.3740 C.3   195  PHE195      0.0560
    138  CG        25.7130   -7.1310  -16.7710 C.ar  195  PHE195     -0.0200
    139  CD1       25.7010   -8.0010  -15.6800 C.ar  195  PHE195     -0.0042
    140  CD2       24.4980   -6.6730  -17.2760 C.ar  195  PHE195     -0.0042
    141  CE1       24.4980   -8.4100  -15.0930 C.ar  195  PHE195     -0.0003
    142  CE2       23.2890   -7.0780  -16.6930 C.ar  195  PHE195     -0.0003
    143  CZ        23.3020   -7.9510  -15.5950 C.ar  195  PHE195     -0.0000
@<TRIPOS>BOND
     1   114   115    1
     2   115   118    1
     3   115   116    1
     4   118   119    1
     5   120   119   ar
     6   120   122   ar
     7   116   117    2
     8   116   126   am
     9   119   121   ar
    10   122   124   ar
    11   132   130    1
    12   126   127    1
    13     4     3    2
    14   130   127    1
    15   130   131    1
    16   124   125    1
    17   124   123   ar
    18   121   123   ar
    19   127   128    1
    20     1     2    1
    21     3     2    1
    22   129   128    2
    23   128   133   am
    24     2     5    1
    25     5     6    1
    26    39    38    2
    27   133   134    1
    28     6     7    1
    29     9     7   ar
    30    38    40   am
    31    38    37    1
    32     7     8   ar
    33   134   135    1
    34   134   137    1
    35    91    89    1
    36    49    47   ar
    37    90    89    1
    38   136   135    2
    39    89    88    2
    40    37    34    1
    41   137   138    1
    42   140   138   ar
    43   140   142   ar
    44   101   104    1
    45   101   100    1
    46   101   102    1
    47    47    46    1
    48    47    48   ar
    49   104   105    1
    50    88    87    1
    51    96    93    1
    52    96    97    1
    53   138   139   ar
    54    46    45    1
    55   142   143   ar
    56    93    94    1
    57    93    92    1
    58    87    86    1
    59   102   103    2
    60    94    95    2
    61    35    34    1
    62    35    36    2
    63    34    33    1
    64    99    97   am
    65    86    85    1
    66    97    98    2
    67   105   106   ar
    68   105   107   ar
    69   139   141   ar
    70   143   141   ar
    71    85    82    1
    72    82    83    1
    73    82    81    1
    74    45    42    1
    75   106   108   ar
    76    30    28   ar
    77    30    31   ar
    78   110   107   ar
    79   110   112   ar
    80    44    43    2
    81   107   109   ar
    82    43    42    1
    83    83    84    2
    84    28    26   ar
    85    20    18   ar
    86    20    19   ar
    87    42    41    1
    88    32    31    1
    89    31    29   ar
    90   108   109   ar
    91    18    16   ar
    92   112   113   ar
    93   109   111   ar
    94    24    23    2
    95    19    17   ar
    96    26    25    1
    97    26    27   ar
    98    25    22    1
    99   113   111   ar
   100    29    27   ar
   101    23    22    1
   102    16    15   ar
   103    17    15   ar
   104    22    21    1
   105    13    12    2
   106    15    14    1
   107    63    62   ar
   108    63    61   ar
   109    62    60   ar
   110    10    11    1
   111    61    59   ar
   112    12    11    1
   113    14    11    1
   114    60    57   ar
   115    59    57   ar
   116    59    58   ar
   117    71    70   ar
   118    72    70   ar
   119    70    69    1
   120    57    55   ar
   121    58    56   ar
   122    69    68    1
   123    55    56   ar
   124    55    54    1
   125    68    65    1
   126    51    54    1
   127    51    50    1
   128    51    52    1
   129    65    64    1
   130    65    66    1
   131    52    53    2
   132    80    78    1
   133    66    67    2
   134    79    77    1
   135    77    78    1
   136    77    74    1
   137    76    75    2
   138    75    74    1
   139    74    73    1
