@<TRIPOS>MOLECULE
tmp/3axhA01.pdb
 128 122 0 0 0
SMALL
GASTEIGER

@<TRIPOS>ATOM
      1  N        -15.7660  -15.3480  -22.6170 N.3   155  TYR155     -0.1227
      2  CA       -16.0930  -14.4750  -21.5020 C.3   155  TYR155      0.1736
      3  C        -17.1470  -15.0660  -20.5560 C.2   155  TYR155      0.2595
      4  O        -17.1810  -14.7000  -19.3780 O.2   155  TYR155     -0.2718
      5  CB       -16.5840  -13.1140  -22.0230 C.3   155  TYR155      0.0548
      6  CG       -15.4680  -12.1450  -22.3740 C.ar  155  TYR155     -0.0200
      7  CD1      -14.6860  -12.3310  -23.5140 C.ar  155  TYR155     -0.0009
      8  CD2      -15.2030  -11.0380  -21.5710 C.ar  155  TYR155     -0.0009
      9  CE1      -13.6610  -11.4350  -23.8480 C.ar  155  TYR155      0.0417
     10  CE2      -14.1900  -10.1440  -21.8890 C.ar  155  TYR155      0.0417
     11  CZ       -13.4280  -10.3430  -23.0340 C.ar  155  TYR155      0.1957
     12  OH       -12.4270   -9.4530  -23.3510 O.3   155  TYR155     -0.2866
     13  N        -18.0050  -15.9530  -21.0630 N.am  156  PHE156     -0.1976
     14  CA       -19.0780  -16.5070  -20.2450 C.3   156  PHE156      0.1639
     15  C        -18.7560  -17.9240  -19.7590 C.2   156  PHE156      0.2290
     16  O        -19.6030  -18.5890  -19.1670 O.2   156  PHE156     -0.2864
     17  CB       -20.4230  -16.5010  -20.9810 C.3   156  PHE156      0.0560
     18  CG       -20.8670  -15.1290  -21.4890 C.ar  156  PHE156     -0.0200
     19  CD1      -20.6780  -13.9800  -20.7320 C.ar  156  PHE156     -0.0042
     20  CD2      -21.5170  -15.0250  -22.7150 C.ar  156  PHE156     -0.0042
     21  CE1      -21.1260  -12.7140  -21.2270 C.ar  156  PHE156     -0.0003
     22  CE2      -21.9590  -13.7880  -23.2150 C.ar  156  PHE156     -0.0003
     23  CZ       -21.7560  -12.6470  -22.4700 C.ar  156  PHE156     -0.0000
     24  N        -17.9140  -14.5150  -26.9300 N.3   175  PHE175     -0.1241
     25  CA       -19.0640  -14.4380  -26.0370 C.3   175  PHE175      0.1605
     26  C        -19.8700  -15.7350  -26.0650 C.2   175  PHE175      0.2264
     27  O        -19.2580  -16.8110  -25.9070 O.2   175  PHE175     -0.2867
     28  CB       -19.7990  -13.0950  -26.2130 C.3   175  PHE175      0.0534
     29  CG       -18.9000  -11.9410  -25.8320 C.ar  175  PHE175     -0.0203
     30  CD1      -18.7580  -11.5820  -24.4930 C.ar  175  PHE175     -0.0042
     31  CD2      -18.0610  -11.3530  -26.7820 C.ar  175  PHE175     -0.0042
     32  CE1      -17.8540  -10.5800  -24.1000 C.ar  175  PHE175     -0.0003
     33  CE2      -17.1600  -10.3150  -26.4050 C.ar  175  PHE175     -0.0003
     34  CZ       -17.0330   -9.9660  -25.0630 C.ar  175  PHE175     -0.0000
     35  N        -22.2220    4.2610  -27.8870 N.3   210  ARG210     -0.1245
     36  CA       -21.4660    3.5760  -26.8700 C.3   210  ARG210      0.1563
     37  C        -20.9510    2.2970  -27.5520 C.2   210  ARG210      0.2260
     38  O        -21.7310    1.5080  -28.0780 O.2   210  ARG210     -0.2867
     39  CB       -22.3520    3.2540  -25.6520 C.3   210  ARG210      0.0307
     40  CG       -21.6340    2.4600  -24.5860 C.3   210  ARG210      0.0489
     41  CD       -21.8180    0.9410  -24.8130 C.3   210  ARG210      0.2205
     42  NE       -21.3230    0.1380  -23.6810 N.pl3 210  ARG210     -0.0865
     43  CZ       -21.2880   -1.1890  -23.7000 C.cat 210  ARG210      0.5346
     44  NH1      -21.7300   -1.8390  -24.7740 N.pl3 210  ARG210      0.1354
     45  NH2      -20.8260   -1.8620  -22.6520 N.pl3 210  ARG210      0.1354
     46  N        -19.3820   -1.1650  -27.9290 N.3   212  ASP212     -0.1225
     47  CA       -19.3100   -2.3930  -27.1590 C.3   212  ASP212      0.1805
     48  C        -17.9990   -3.1540  -27.4040 C.2   212  ASP212      0.2597
     49  O        -17.6420   -3.3820  -28.5480 O.2   212  ASP212     -0.2718
     50  CB       -20.4700   -3.3020  -27.5610 C.3   212  ASP212      0.1424
     51  CG       -20.5750   -4.5280  -26.6690 C.2   212  ASP212      0.3668
     52  OD1      -20.7140   -4.3220  -25.4400 O.co2 212  ASP212     -0.2456
     53  OD2      -20.5320   -5.6790  -27.1900 O.co2 212  ASP212     -0.2456
     54  N        -17.3170   -3.5580  -26.3250 N.am  213  VAL213     -0.1980
     55  CA       -15.9950   -4.2030  -26.4050 C.3   213  VAL213      0.1595
     56  C        -15.1530   -3.6680  -27.5690 C.2   213  VAL213      0.2287
     57  O        -14.6390   -4.4260  -28.3920 O.2   213  VAL213     -0.2864
     58  CB       -16.0700   -5.7840  -26.3900 C.3   213  VAL213      0.0276
     59  CG1      -16.4620   -6.2750  -24.9830 C.3   213  VAL213      0.0022
     60  CG2      -17.0340   -6.3320  -27.4390 C.3   213  VAL213      0.0022
     61  N        -12.5640   -1.7410  -21.5270 N.3   276  GLN276     -0.1245
     62  CA       -12.2200   -2.7120  -20.4780 C.3   276  GLN276      0.1566
     63  C        -10.9500   -2.3500  -19.7230 C.2   276  GLN276      0.2260
     64  O        -11.0170   -1.9120  -18.5780 O.2   276  GLN276     -0.2867
     65  CB       -12.1520   -4.1630  -20.9920 C.3   276  GLN276      0.0367
     66  CG       -13.2790   -4.5200  -21.9340 C.3   276  GLN276      0.0905
     67  CD       -13.2470   -5.9900  -22.3100 C.2   276  GLN276      0.2608
     68  OE1      -13.0440   -6.3460  -23.4700 O.2   276  GLN276     -0.2717
     69  NE2      -13.4050   -6.8450  -21.3200 N.am  276  GLN276     -0.0878
     70  N        -12.4400   -0.5790  -16.5720 N.3   300  PHE300     -0.1241
     71  CA       -13.2370   -1.3350  -15.6040 C.3   300  PHE300      0.1605
     72  C        -12.5460   -1.5940  -14.2480 C.2   300  PHE300      0.2264
     73  O        -13.1060   -2.3140  -13.4070 O.2   300  PHE300     -0.2867
     74  CB       -13.6860   -2.6920  -16.1850 C.3   300  PHE300      0.0534
     75  CG       -14.5330   -2.6110  -17.4540 C.ar  300  PHE300     -0.0203
     76  CD1      -15.0730   -1.4080  -17.9260 C.ar  300  PHE300     -0.0042
     77  CD2      -14.8330   -3.7890  -18.1350 C.ar  300  PHE300     -0.0042
     78  CE1      -15.8590   -1.3810  -19.1110 C.ar  300  PHE300     -0.0003
     79  CE2      -15.6040   -3.7890  -19.2930 C.ar  300  PHE300     -0.0003
     80  CZ       -16.1320   -2.5810  -19.7920 C.ar  300  PHE300     -0.0000
     81  N        -13.8130  -13.5640  -12.6900 N.3   312  ARG312     -0.1245
     82  CA       -14.7560  -12.5520  -12.1870 C.3   312  ARG312      0.1563
     83  C        -15.5460  -13.0780  -10.9840 C.2   312  ARG312      0.2260
     84  O        -15.8610  -12.3280  -10.0730 O.2   312  ARG312     -0.2867
     85  CB       -15.7350  -12.1710  -13.3180 C.3   312  ARG312      0.0307
     86  CG       -16.8770  -11.2230  -12.9430 C.3   312  ARG312      0.0489
     87  CD       -16.4060   -9.8070  -12.9120 C.3   312  ARG312      0.2205
     88  NE       -17.4960   -8.8440  -12.7310 N.pl3 312  ARG312     -0.0865
     89  CZ       -17.3370   -7.6790  -12.1090 C.cat 312  ARG312      0.5346
     90  NH1      -16.1490   -7.3590  -11.6060 N.pl3 312  ARG312      0.1354
     91  NH2      -18.3680   -6.8500  -11.9580 N.pl3 312  ARG312      0.1354
     92  N        -24.1110   -4.3610  -16.7420 N.3   349  ASP349     -0.1225
     93  CA       -23.2250   -5.5010  -16.4420 C.3   349  ASP349      0.1805
     94  C        -22.7710   -5.5520  -14.9800 C.2   349  ASP349      0.2597
     95  O        -22.0020   -6.4290  -14.6050 O.2   349  ASP349     -0.2718
     96  CB       -21.9510   -5.4500  -17.2950 C.3   349  ASP349      0.1424
     97  CG       -22.2150   -5.6430  -18.7790 C.2   349  ASP349      0.3668
     98  OD1      -23.1010   -6.4520  -19.1490 O.co2 349  ASP349     -0.2456
     99  OD2      -21.4860   -4.9910  -19.5710 O.co2 349  ASP349     -0.2456
    100  N        -23.1850   -4.5860  -14.1790 N.am  350  GLN350     -0.1979
    101  CA       -22.6360   -4.4200  -12.8250 C.3   350  GLN350      0.1601
    102  C        -23.6800   -4.5850  -11.7310 C.2   350  GLN350      0.2287
    103  O        -24.8200   -4.1470  -11.9010 O.2   350  GLN350     -0.2864
    104  CB       -21.9810   -3.0180  -12.6710 C.3   350  GLN350      0.0394
    105  CG       -20.6820   -2.8270  -13.5020 C.3   350  GLN350      0.0908
    106  CD       -19.6060   -3.8730  -13.2290 C.2   350  GLN350      0.2608
    107  OE1      -18.9430   -4.3760  -14.1560 O.2   350  GLN350     -0.2717
    108  NE2      -19.4390   -4.2220  -11.9820 N.am  350  GLN350     -0.0878
    109  N        -24.3380  -15.3410  -18.8200 N.3   408  GLU408     -0.1245
    110  CA       -23.0320  -15.3760  -18.1410 C.3   408  GLU408      0.1567
    111  C        -23.0660  -16.2670  -16.9030 C.2   408  GLU408      0.2260
    112  O        -22.0770  -16.9120  -16.5840 O.2   408  GLU408     -0.2867
    113  CB       -22.5430  -13.9610  -17.7780 C.3   408  GLU408      0.0388
    114  CG       -21.1720  -13.9390  -17.0920 C.3   408  GLU408      0.1160
    115  CD       -20.5910  -12.5460  -17.0150 C.2   408  GLU408      0.3649
    116  OE1      -20.7330  -11.8970  -15.9700 O.co2 408  GLU408     -0.2457
    117  OE2      -20.0300  -12.0920  -18.0280 O.co2 408  GLU408     -0.2457
    118  N        -24.3880   -9.6770  -13.0920 N.3   439  ARG439     -0.1245
    119  CA       -24.9960   -8.6400  -13.9270 C.3   439  ARG439      0.1563
    120  C        -26.4990   -8.5330  -13.6810 C.2   439  ARG439      0.2260
    121  O        -27.0840   -7.4780  -13.9220 O.2   439  ARG439     -0.2867
    122  CB       -24.7610   -8.9460  -15.4110 C.3   439  ARG439      0.0307
    123  CG       -23.2770   -9.3400  -15.7170 C.3   439  ARG439      0.0489
    124  CD       -22.9420   -9.2240  -17.2170 C.3   439  ARG439      0.2205
    125  NE       -23.5950  -10.2660  -18.0410 N.pl3 439  ARG439     -0.0865
    126  CZ       -23.4630  -10.3410  -19.3590 C.cat 439  ARG439      0.5346
    127  NH1      -22.7250   -9.4240  -19.9960 N.pl3 439  ARG439      0.1354
    128  NH2      -24.0910  -11.2930  -20.0570 N.pl3 439  ARG439      0.1354
@<TRIPOS>BOND
     1    49    48    2
     2    57    56    2
     3    38    37    2
     4    46    47    1
     5    35    36    1
     6    56    55    1
     7    50    47    1
     8    50    51    1
     9    37    36    1
    10    60    58    1
    11    48    47    1
    12    48    54   am
    13    53    51   ar
    14    24    25    1
    15    36    39    1
    16    31    33   ar
    17    31    29   ar
    18    51    52   ar
    19    55    58    1
    20    55    54    1
    21    33    34   ar
    22    58    59    1
    23    28    25    1
    24    28    29    1
    25    26    25    1
    26    26    27    2
    27    29    30   ar
    28    39    40    1
    29    34    32   ar
    30    41    40    1
    31    41    42    1
    32    44    43    1
    33    30    32   ar
    34     9     7   ar
    35     9    11   ar
    36    43    42    2
    37    43    45    1
    38     7     6   ar
    39    68    67    2
    40    12    11    1
    41    22    20   ar
    42    22    23   ar
    43    11    10   ar
    44    20    18   ar
    45     1     2    1
    46    23    21   ar
    47     6     5    1
    48     6     8   ar
    49    67    66    1
    50    67    69   am
    51     5     2    1
    52    66    65    1
    53    10     8   ar
    54    61    62    1
    55     2     3    1
    56    18    17    1
    57    18    19   ar
    58    21    19   ar
    59    13     3   am
    60    13    14    1
    61    65    62    1
    62    17    14    1
    63     3     4    2
    64    62    63    1
    65    14    15    1
    66   128   126    1
    67   127   126    1
    68    80    79   ar
    69    80    78   ar
    70    15    16    2
    71    63    64    2
    72    99    97   ar
    73   126   125    2
    74    79    77   ar
    75    98    97   ar
    76    78    76   ar
    77   109   110    1
    78    97    96    1
    79   110   113    1
    80   110   111    1
    81    77    75   ar
    82   125   124    1
    83   117   115   ar
    84    76    75   ar
    85   113   114    1
    86    75    74    1
    87    96    93    1
    88   124   123    1
    89   114   115    1
    90   115   116   ar
    91   111   112    2
    92    92    93    1
    93    70    71    1
    94    93    94    1
    95    74    71    1
    96   123   122    1
    97    71    72    1
    98   122   119    1
    99    94    95    2
   100    94   100   am
   101    72    73    2
   102   100   101    1
   103   107   106    2
   104   119   120    1
   105   119   118    1
   106   121   120    2
   107   105   106    1
   108   105   104    1
   109    85    86    1
   110    85    82    1
   111   106   108   am
   112    86    87    1
   113    87    88    1
   114   101   104    1
   115   101   102    1
   116    88    89    2
   117    81    82    1
   118    82    83    1
   119    89    91    1
   120    89    90    1
   121   103   102    2
   122    83    84    2
