@<TRIPOS>MOLECULE
tmp/3axkA00.pdb
 168 164 0 0 0
SMALL
GASTEIGER

@<TRIPOS>ATOM
      1  N         34.7910   30.3460  -24.2590 N.3   150  THR150     -0.1218
      2  CA        35.6490   29.9390  -23.1520 C.3   150  THR150      0.1862
      3  C         36.6960   29.0050  -23.7460 C.2   150  THR150      0.2287
      4  O         36.3500   28.0760  -24.4720 O.2   150  THR150     -0.2866
      5  CB        34.8400   29.1790  -22.0870 C.3   150  THR150      0.1770
      6  OG1       33.7220   29.9800  -21.6900 O.3   150  THR150     -0.2211
      7  CG2       35.7060   28.8640  -20.8690 C.3   150  THR150      0.0375
      8  N         39.2280   26.0130  -24.2500 N.3   152  LYS152     -0.1245
      9  CA        39.2810   24.6120  -23.8370 C.3   152  LYS152      0.1561
     10  C         40.4860   23.9550  -24.5080 C.2   152  LYS152      0.2260
     11  O         40.8830   24.3460  -25.6030 O.2   152  LYS152     -0.2867
     12  CB        38.0060   23.8800  -24.2540 C.3   152  LYS152      0.0271
     13  CG        36.7490   24.4050  -23.5940 C.3   152  LYS152      0.0035
     14  CD        36.2260   23.4370  -22.5540 C.3   152  LYS152      0.0206
     15  CE        35.0380   24.0330  -21.8210 C.3   152  LYS152      0.1093
     16  NZ        34.0240   24.5620  -22.7740 N.3   152  LYS152     -0.1314
     17  N         38.7470   29.9420  -18.1080 N.3   179  ASP179     -0.1225
     18  CA        37.7740   29.1320  -17.3940 C.3   179  ASP179      0.1805
     19  C         37.8020   29.6090  -15.9390 C.2   179  ASP179      0.2597
     20  O         38.8060   30.1690  -15.4900 O.2   179  ASP179     -0.2718
     21  CB        38.1410   27.6540  -17.4730 C.3   179  ASP179      0.1424
     22  CG        37.1110   26.7730  -16.8090 C.2   179  ASP179      0.3668
     23  OD1       37.2730   26.4620  -15.6090 O.co2 179  ASP179     -0.2456
     24  OD2       36.1250   26.4110  -17.4880 O.co2 179  ASP179     -0.2456
     25  N         36.7090   29.4030  -15.2090 N.am  180  GLU180     -0.1979
     26  CA        36.6380   29.8370  -13.8160 C.3   180  GLU180      0.1602
     27  C         37.7530   29.2330  -12.9630 C.2   180  GLU180      0.2287
     28  O         38.2360   29.8600  -12.0230 O.2   180  GLU180     -0.2864
     29  CB        35.2780   29.4730  -13.2030 C.3   180  GLU180      0.0415
     30  CG        35.0390   27.9790  -13.0710 C.3   180  GLU180      0.1163
     31  CD        34.2930   27.3920  -14.2470 C.2   180  GLU180      0.3649
     32  OE1       34.4680   27.8870  -15.3800 O.co2 180  GLU180     -0.2457
     33  OE2       33.5300   26.4240  -14.0410 O.co2 180  GLU180     -0.2457
     34  N         31.9110   35.5440  -12.9670 N.3   270  HIS270     -0.1226
     35  CA        31.5080   34.1480  -13.1020 C.3   270  HIS270      0.1752
     36  C         30.8600   33.7550  -11.7770 C.2   270  HIS270      0.2596
     37  O         31.2830   34.2200  -10.7200 O.2   270  HIS270     -0.2718
     38  CB        32.7260   33.2670  -13.3960 C.3   270  HIS270      0.0759
     39  CG        32.3810   31.8500  -13.7350 C.ar  270  HIS270      0.0818
     40  ND1       32.1690   30.8830  -12.7750 N.ar  270  HIS270     -0.2268
     41  CD2       32.1750   31.2440  -14.9280 C.ar  270  HIS270      0.1154
     42  CE1       31.8450   29.7440  -13.3630 C.ar  270  HIS270      0.1986
     43  NE2       31.8420   29.9370  -14.6690 N.ar  270  HIS270     -0.2212
     44  N         29.8420   32.9020  -11.8270 N.am  271  ARG271     -0.1966
     45  CA        29.1270   32.5190  -10.6110 C.3   271  ARG271      0.1729
     46  C         29.4370   31.1300  -10.0480 C.2   271  ARG271      0.2616
     47  O         28.5660   30.4840   -9.4630 O.2   271  ARG271     -0.2715
     48  CB        27.6200   32.6520  -10.8530 C.3   271  ARG271      0.0348
     49  CG        27.1090   31.8460  -12.0390 C.3   271  ARG271      0.0492
     50  CD        25.5950   31.9430  -12.1550 C.3   271  ARG271      0.2205
     51  NE        25.0500   30.9790  -13.1060 N.pl3 271  ARG271     -0.0865
     52  CZ        23.7500   30.7510  -13.2720 C.cat 271  ARG271      0.5346
     53  NH1       22.8630   31.4220  -12.5550 N.pl3 271  ARG271      0.1354
     54  NH2       23.3360   29.8350  -14.1370 N.pl3 271  ARG271      0.1354
     55  N         30.6780   30.6800  -10.2090 N.am  272  ALA272     -0.1977
     56  CA        31.0880   29.3720   -9.7040 C.3   272  ALA272      0.1597
     57  C         30.5870   29.1150   -8.2800 C.2   272  ALA272      0.2287
     58  O         30.6580   29.9950   -7.4150 O.2   272  ALA272     -0.2864
     59  CB        32.6130   29.2550   -9.7390 C.3   272  ALA272      0.0319
     60  N         27.5090   28.6260   -7.3450 N.3   274  HIS274     -0.1226
     61  CA        26.1440   29.0890   -7.0930 C.3   274  HIS274      0.1752
     62  C         25.1560   27.9370   -6.8880 C.2   274  HIS274      0.2595
     63  O         24.2760   28.0190   -6.0260 O.2   274  HIS274     -0.2718
     64  CB        25.6580   29.9940   -8.2360 C.3   274  HIS274      0.0759
     65  CG        25.3290   29.2600   -9.4990 C.ar  274  HIS274      0.0818
     66  ND1       24.0330   29.0060   -9.8950 N.ar  274  HIS274     -0.2268
     67  CD2       26.1260   28.7300  -10.4570 C.ar  274  HIS274      0.1154
     68  CE1       24.0460   28.3550  -11.0430 C.ar  274  HIS274      0.1986
     69  NE2       25.3030   28.1740  -11.4060 N.ar  274  HIS274     -0.2212
     70  N         25.3080   26.8600   -7.6570 N.am  275  ALA275     -0.1980
     71  CA        24.4060   25.7150   -7.5470 C.3   275  ALA275      0.1597
     72  C         24.4490   25.0440   -6.1740 C.2   275  ALA275      0.2287
     73  O         23.5120   24.3470   -5.7890 O.2   275  ALA275     -0.2864
     74  CB        24.7060   24.6960   -8.6420 C.3   275  ALA275      0.0319
     75  N         27.2530   35.7590  -15.2530 N.3   303  HIS303     -0.1241
     76  CA        26.6680   34.5780  -15.8650 C.3   303  HIS303      0.1621
     77  C         25.2480   34.3950  -15.3470 C.2   303  HIS303      0.2264
     78  O         24.9990   34.4870  -14.1430 O.2   303  HIS303     -0.2867
     79  CB        27.5230   33.3490  -15.5630 C.3   303  HIS303      0.0745
     80  CG        28.7580   33.2640  -16.4040 C.ar  303  HIS303      0.0817
     81  ND1       28.9430   32.2870  -17.3590 N.ar  303  HIS303     -0.2268
     82  CD2       29.8640   34.0440  -16.4450 C.ar  303  HIS303      0.1154
     83  CE1       30.1110   32.4680  -17.9510 C.ar  303  HIS303      0.1986
     84  NE2       30.6900   33.5270  -17.4140 N.ar  303  HIS303     -0.2212
     85  N         23.1590   31.7300  -16.8130 N.3   305  GLY305     -0.1210
     86  CA        22.6840   30.4070  -17.1850 C.3   305  GLY305      0.1956
     87  C         22.3410   30.2110  -18.6490 C.2   305  GLY305      0.2612
     88  O         22.7430   31.0020  -19.5010 O.2   305  GLY305     -0.2717
     89  N         21.5960   29.1440  -18.9390 N.am  306  THR306     -0.1952
     90  CA        21.1780   28.8230  -20.3050 C.3   306  THR306      0.1897
     91  C         19.6750   28.9410  -20.5050 C.2   306  THR306      0.2313
     92  O         18.9130   29.0710  -19.5480 O.2   306  THR306     -0.2863
     93  CB        21.5710   27.3830  -20.7100 C.3   306  THR306      0.1794
     94  OG1       21.7240   26.5750  -19.5380 O.3   306  THR306     -0.2208
     95  CG2       22.8460   27.3830  -21.5170 C.3   306  THR306      0.0378
     96  N         25.4940   30.8720  -21.2170 N.3   350  SER350     -0.1202
     97  CA        26.4760   29.8790  -21.6390 C.3   350  SER350      0.2020
     98  C         25.9940   28.4900  -21.2520 C.2   350  SER350      0.2619
     99  O         25.1370   28.3480  -20.3810 O.2   350  SER350     -0.2717
    100  CB        27.8370   30.1470  -20.9870 C.3   350  SER350      0.2103
    101  OG        27.7870   29.9370  -19.5870 O.3   350  SER350     -0.2182
    102  N         26.5410   27.4680  -21.9010 N.am  351  GLY351     -0.1942
    103  CA        26.1510   26.1060  -21.5820 C.3   351  GLY351      0.2014
    104  C         25.4880   25.3230  -22.7030 C.2   351  GLY351      0.2639
    105  O         24.2750   25.4080  -22.8970 O.2   351  GLY351     -0.2714
    106  N         26.2900   24.5560  -23.4370 N.am  352  GLY352     -0.1939
    107  CA        25.7730   23.7380  -24.5210 C.3   352  GLY352      0.2014
    108  C         24.9920   24.4450  -25.6130 C.2   352  GLY352      0.2639
    109  O         24.0540   23.8770  -26.1720 O.2   352  GLY352     -0.2714
    110  N         25.3710   25.6760  -25.9310 N.am  353  ILE353     -0.1963
    111  CA        24.6820   26.4210  -26.9780 C.3   353  ILE353      0.1727
    112  C         25.4770   26.4190  -28.2780 C.2   353  ILE353      0.2616
    113  O         26.7060   26.5010  -28.2650 O.2   353  ILE353     -0.2715
    114  CB        24.4120   27.8850  -26.5440 C.3   353  ILE353      0.0290
    115  CG1       25.6480   28.4630  -25.8530 C.3   353  ILE353      0.0022
    116  CG2       23.1950   27.9410  -25.6330 C.3   353  ILE353      0.0023
    117  CD1       25.4710   29.8920  -25.3710 C.3   353  ILE353      0.0001
    118  N         24.7690   26.3020  -29.3980 N.am  354  HIS354     -0.1973
    119  CA        25.4020   26.3060  -30.7110 C.3   354  HIS354      0.1656
    120  C         24.5880   27.1410  -31.6980 C.2   354  HIS354      0.2291
    121  O         23.5410   27.6830  -31.3440 O.2   354  HIS354     -0.2864
    122  CB        25.5830   24.8710  -31.2250 C.3   354  HIS354      0.0771
    123  CG        24.3410   24.0390  -31.1560 C.ar  354  HIS354      0.0820
    124  ND1       23.2290   24.2920  -31.9290 N.ar  354  HIS354     -0.2267
    125  CD2       24.0390   22.9530  -30.4050 C.ar  354  HIS354      0.1154
    126  CE1       22.2950   23.3970  -31.6580 C.ar  354  HIS354      0.1986
    127  NE2       22.7610   22.5730  -30.7360 N.ar  354  HIS354     -0.2212
    128  N         29.9270   30.7820  -25.8700 N.3   373  PHE373     -0.1227
    129  CA        29.9880   29.4240  -26.3750 C.3   373  PHE373      0.1736
    130  C         31.2000   28.6870  -25.8130 C.2   373  PHE373      0.2596
    131  O         32.0410   29.2660  -25.1270 O.2   373  PHE373     -0.2718
    132  CB        30.0480   29.4270  -27.9070 C.3   373  PHE373      0.0547
    133  CG        28.8520   30.0510  -28.5660 C.ar  373  PHE373     -0.0202
    134  CD1       28.7680   31.4300  -28.7330 C.ar  373  PHE373     -0.0042
    135  CD2       27.7910   29.2590  -28.9900 C.ar  373  PHE373     -0.0042
    136  CE1       27.6380   32.0100  -29.3160 C.ar  373  PHE373     -0.0003
    137  CE2       26.6600   29.8250  -29.5710 C.ar  373  PHE373     -0.0003
    138  CZ        26.5840   31.2060  -29.7310 C.ar  373  PHE373     -0.0000
    139  N         31.2620   27.3930  -26.0990 N.am  374  GLY374     -0.1942
    140  CA        32.3720   26.5740  -25.6550 C.3   374  GLY374      0.2014
    141  C         32.7620   25.7260  -26.8440 C.2   374  GLY374      0.2639
    142  O         33.5880   26.1290  -27.6660 O.2   374  GLY374     -0.2714
    143  N         32.1600   24.5470  -26.9410 N.am  375  GLY375     -0.1939
    144  CA        32.4320   23.6780  -28.0680 C.3   375  GLY375      0.2014
    145  C         31.6090   24.2070  -29.2210 C.2   375  GLY375      0.2639
    146  O         31.8430   23.8640  -30.3780 O.2   375  GLY375     -0.2714
    147  N         30.6370   25.0540  -28.8880 N.am  376  GLY376     -0.1954
    148  CA        29.7870   25.6530  -29.8970 C.3   376  GLY376      0.1869
    149  C         30.6290   26.3660  -30.9370 C.2   376  GLY376      0.2309
    150  O         30.1940   26.5580  -32.0700 O.2   376  GLY376     -0.2863
    151  N         34.3240   23.5720  -31.3470 N.3   379  GLY379     -0.1225
    152  CA        34.0210   22.2870  -31.9520 C.3   379  GLY379      0.1811
    153  C         33.7320   22.3490  -33.4400 C.2   379  GLY379      0.2280
    154  O         33.3070   21.3540  -34.0320 O.2   379  GLY379     -0.2866
    155  N         25.9100   19.9830  -35.8020 N.3   433  TRP433     -0.1241
    156  CA        24.9760   20.1640  -34.6960 C.3   433  TRP433      0.1605
    157  C         23.5240   20.0650  -35.1570 C.2   433  TRP433      0.2264
    158  O         22.7200   20.9400  -34.7770 O.2   433  TRP433     -0.2867
    159  CB        25.2170   21.5170  -34.0140 C.3   433  TRP433      0.0550
    160  CG        26.4570   21.5490  -33.1670 C.ar  433  TRP433      0.0003
    161  CD1       26.7110   20.7910  -32.0580 C.ar  433  TRP433      0.0946
    162  CD2       27.6200   22.3620  -33.3700 C.ar  433  TRP433      0.0152
    163  NE1       27.9600   21.0780  -31.5610 N.ar  433  TRP433     -0.2442
    164  CE2       28.5410   22.0390  -32.3470 C.ar  433  TRP433      0.0810
    165  CE3       27.9770   23.3310  -34.3180 C.ar  433  TRP433      0.0012
    166  CZ2       29.7950   22.6490  -32.2450 C.ar  433  TRP433      0.0191
    167  CZ3       29.2260   23.9390  -34.2180 C.ar  433  TRP433      0.0001
    168  CH2       30.1200   23.5940  -33.1880 C.ar  433  TRP433      0.0015
@<TRIPOS>BOND
     1   155   156    1
     2   157   158    2
     3   157   156    1
     4   156   159    1
     5   165   167   ar
     6   165   162   ar
     7   167   168   ar
     8   154   153    2
     9   159   160    1
    10   153   152    1
    11   162   160   ar
    12   162   164   ar
    13   168   166   ar
    14   160   161   ar
    15   164   166   ar
    16   164   163   ar
    17   150   149    2
    18   161   163   ar
    19   152   151    1
    20   124   126   ar
    21   124   123   ar
    22   120   121    2
    23   120   119    1
    24   126   127   ar
    25   122   123    1
    26   122   119    1
    27   123   125   ar
    28   149   148    1
    29   127   125   ar
    30   119   118    1
    31   146   145    2
    32   148   147    1
    33   138   137   ar
    34   138   136   ar
    35   137   135   ar
    36   118   112   am
    37   136   134   ar
    38   145   147   am
    39   145   144    1
    40   135   133   ar
    41   134   133   ar
    42   133   132    1
    43   112   113    2
    44   112   111    1
    45   144   143    1
    46   132   129    1
    47   142   141    2
    48   111   114    1
    49   111   110    1
    50   143   141   am
    51   141   140    1
    52   114   115    1
    53   114   116    1
    54   129   128    1
    55   129   130    1
    56   109   108    2
    57   139   130   am
    58   139   140    1
    59   110   108   am
    60   115   117    1
    61   130   131    2
    62   108   107    1
    63    11    10    2
    64   107   106    1
    65    10     9    1
    66     4     3    2
    67     1     2    1
    68    12     9    1
    69    12    13    1
    70     8     9    1
    71     3     2    1
    72    13    14    1
    73   106   104   am
    74     2     5    1
    75   105   104    2
    76    16    15    1
    77   104   103    1
    78    14    15    1
    79     5     6    1
    80     5     7    1
    81   102   103    1
    82   102    98   am
    83    97    98    1
    84    97    96    1
    85    97   100    1
    86    95    93    1
    87    98    99    2
    88   100   101    1
    89    93    90    1
    90    93    94    1
    91    91    90    1
    92    91    92    2
    93    90    89    1
    94    88    87    2
    95    89    87   am
    96    87    86    1
    97    17    18    1
    98    83    84   ar
    99    83    81   ar
   100    24    22   ar
   101    21    18    1
   102    21    22    1
   103    84    82   ar
   104    18    19    1
   105    81    80   ar
   106    86    85    1
   107    22    23   ar
   108    82    80   ar
   109    80    79    1
   110    19    20    2
   111    19    25   am
   112    76    79    1
   113    76    77    1
   114    76    75    1
   115    32    31   ar
   116    77    78    2
   117    25    26    1
   118    41    43   ar
   119    41    39   ar
   120    43    42   ar
   121    31    33   ar
   122    31    30    1
   123    54    52    1
   124    26    29    1
   125    26    27    1
   126    39    38    1
   127    39    40   ar
   128    38    35    1
   129    42    40   ar
   130    52    51    2
   131    52    53    1
   132    29    30    1
   133    51    50    1
   134    35    34    1
   135    35    36    1
   136    27    28    2
   137    50    49    1
   138    49    48    1
   139    44    36   am
   140    44    45    1
   141    36    37    2
   142    69    68   ar
   143    69    67   ar
   144    68    66   ar
   145    48    45    1
   146    45    46    1
   147    67    65   ar
   148    55    46   am
   149    55    56    1
   150    46    47    2
   151    66    65   ar
   152    59    56    1
   153    56    57    1
   154    65    64    1
   155    74    71    1
   156    57    58    2
   157    64    61    1
   158    70    71    1
   159    70    62   am
   160    71    72    1
   161    60    61    1
   162    61    62    1
   163    62    63    2
   164    72    73    2
