@<TRIPOS>MOLECULE
tmp/3axsA00.pdb
 188 183 0 0 0
SMALL
GASTEIGER

@<TRIPOS>ATOM
      1  N         24.8290   12.0890   54.9460 N.3    27  PHE27      -0.1227
      2  CA        24.0040   11.2190   54.1140 C.3    27  PHE27       0.1736
      3  C         22.5480   11.6850   54.0980 C.2    27  PHE27       0.2595
      4  O         21.9370   11.8160   53.0390 O.2    27  PHE27      -0.2718
      5  CB        24.0910    9.7740   54.5990 C.3    27  PHE27       0.0547
      6  CG        23.4520    8.7860   53.6700 C.ar   27  PHE27      -0.0202
      7  CD1       22.2650    8.1620   54.0110 C.ar   27  PHE27      -0.0042
      8  CD2       24.0330    8.4900   52.4470 C.ar   27  PHE27      -0.0042
      9  CE1       21.6750    7.2490   53.1600 C.ar   27  PHE27      -0.0003
     10  CE2       23.4460    7.5800   51.5870 C.ar   27  PHE27      -0.0003
     11  CZ        22.2610    6.9590   51.9460 C.ar   27  PHE27      -0.0000
     12  N         22.0020   11.9330   55.2820 N.am   28  TYR28      -0.1962
     13  CA        20.6580   12.4740   55.4090 C.3    28  TYR28       0.1771
     14  C         20.6300   13.6410   56.3810 C.2    28  TYR28       0.2619
     15  O         21.0640   13.5190   57.5280 O.2    28  TYR28      -0.2715
     16  CB        19.6730   11.3980   55.8590 C.3    28  TYR28       0.0574
     17  CG        18.3610   11.9760   56.3330 C.ar   28  TYR28      -0.0198
     18  CD1       18.1320   12.2070   57.6820 C.ar   28  TYR28      -0.0009
     19  CD2       17.3590   12.3070   55.4310 C.ar   28  TYR28      -0.0009
     20  CE1       16.9460   12.7460   58.1210 C.ar   28  TYR28       0.0417
     21  CE2       16.1620   12.8450   55.8620 C.ar   28  TYR28       0.0417
     22  CZ        15.9620   13.0620   57.2090 C.ar   28  TYR28       0.1957
     23  OH        14.7750   13.5950   57.6470 O.3    28  TYR28      -0.2866
     24  N         20.1140   14.7710   55.9140 N.am   29  ASN29      -0.1972
     25  CA        20.0370   15.9760   56.7250 C.3    29  ASN29       0.1688
     26  C         18.5880   16.3820   56.9660 C.2    29  ASN29       0.2292
     27  O         17.9090   16.8370   56.0480 O.2    29  ASN29      -0.2864
     28  CB        20.8070   17.1140   56.0470 C.3    29  ASN29       0.1181
     29  CG        20.8100   18.3940   56.8630 C.2    29  ASN29       0.2629
     30  OD1       20.2830   18.4430   57.9760 O.2    29  ASN29      -0.2716
     31  ND2       21.4190   19.4400   56.3140 N.am   29  ASN29      -0.0877
     32  N         12.3880   19.2210   51.0310 N.3    36  ARG36      -0.1245
     33  CA        11.7170   18.0210   50.5410 C.3    36  ARG36       0.1563
     34  C         10.1900   18.1320   50.5810 C.2    36  ARG36       0.2260
     35  O          9.5060   17.5690   49.7250 O.2    36  ARG36      -0.2867
     36  CB        12.2030   16.7790   51.2950 C.3    36  ARG36       0.0307
     37  CG        13.5950   16.3150   50.8690 C.3    36  ARG36       0.0489
     38  CD        14.0450   15.0780   51.6380 C.3    36  ARG36       0.2205
     39  NE        14.2340   15.3720   53.0530 N.pl3  36  ARG36      -0.0865
     40  CZ        15.4020   15.6840   53.6040 C.cat  36  ARG36       0.5346
     41  NH1       15.4750   15.9450   54.9000 N.pl3  36  ARG36       0.1354
     42  NH2       16.4960   15.7400   52.8570 N.pl3  36  ARG36       0.1354
     43  N         15.2300   10.9420   40.4680 N.3    58  ASP58      -0.1239
     44  CA        15.9550   11.4050   41.6420 C.3    58  ASP58       0.1674
     45  C         17.4240   11.0380   41.4370 C.2    58  ASP58       0.2266
     46  O         17.9140   10.0680   42.0120 O.2    58  ASP58      -0.2867
     47  CB        15.3870   10.7300   42.8960 C.3    58  ASP58       0.1410
     48  CG        15.9640   11.2900   44.1910 C.2    58  ASP58       0.3668
     49  OD1       15.5960   10.7720   45.2710 O.co2  58  ASP58      -0.2456
     50  OD2       16.7830   12.2320   44.1350 O.co2  58  ASP58      -0.2456
     51  N         20.3030   12.2740   42.3000 N.3    60  LEU60      -0.1231
     52  CA        21.2240   12.3280   43.4310 C.3    60  LEU60       0.1693
     53  C         20.4500   11.9550   44.6910 C.2    60  LEU60       0.2593
     54  O         20.0300   12.8230   45.4480 O.2    60  LEU60      -0.2718
     55  CB        21.8210   13.7310   43.5600 C.3    60  LEU60       0.0284
     56  CG        22.5470   14.3000   42.3340 C.3    60  LEU60       0.0019
     57  CD1       22.8640   15.7860   42.5130 C.3    60  LEU60       0.0001
     58  CD2       23.8160   13.5170   42.0440 C.3    60  LEU60       0.0001
     59  N         20.2630   10.6570   44.9060 N.am   61  SER61      -0.1938
     60  CA        19.2160   10.1790   45.8090 C.3    61  SER61       0.2055
     61  C         19.6410    9.9290   47.2590 C.2    61  SER61       0.2643
     62  O         18.8430   10.1080   48.1770 O.2    61  SER61      -0.2714
     63  CB        18.5610    8.9230   45.2270 C.3    61  SER61       0.2130
     64  OG        17.3790    8.5880   45.9290 O.3    61  SER61      -0.2179
     65  N         20.8880    9.5160   47.4600 N.am   62  ALA62      -0.1963
     66  CA        21.3900    9.2050   48.7980 C.3    62  ALA62       0.1728
     67  C         20.5410    8.1330   49.4920 C.2    62  ALA62       0.2616
     68  O         20.5640    6.9700   49.0920 O.2    62  ALA62      -0.2715
     69  CB        21.4780   10.4690   49.6480 C.3    62  ALA62       0.0334
     70  N         19.7930    8.5250   50.5220 N.am   63  SER63      -0.1950
     71  CA        18.9770    7.5730   51.2770 C.3    63  SER63       0.1924
     72  C         17.7680    7.0920   50.4790 C.2    63  SER63       0.2314
     73  O         17.1760    6.0610   50.8000 O.2    63  SER63      -0.2863
     74  CB        18.4970    8.1950   52.5870 C.3    63  SER63       0.2116
     75  OG        17.5110    9.1840   52.3450 O.3    63  SER63      -0.2180
     76  N         15.2050    9.1150   50.1010 N.3    65  ILE65      -0.1231
     77  CA        14.0980    9.7740   50.7870 C.3    65  ILE65       0.1692
     78  C         13.1500   10.5470   49.8610 C.2    65  ILE65       0.2591
     79  O         11.9290   10.4780   50.0220 O.2    65  ILE65      -0.2718
     80  CB        14.6060   10.7040   51.9160 C.3    65  ILE65       0.0266
     81  CG1       13.4300   11.3670   52.6350 C.3    65  ILE65       0.0019
     82  CG2       15.5800   11.7430   51.3670 C.3    65  ILE65       0.0020
     83  CD1       12.4500   10.3820   53.2270 C.3    65  ILE65       0.0001
     84  N         13.6970   11.2830   48.8980 N.am   66  ARG66      -0.1980
     85  CA        12.8420   12.0610   48.0020 C.3    66  ARG66       0.1597
     86  C         11.9870   11.1600   47.1080 C.2    66  ARG66       0.2287
     87  O         10.7640   11.3000   47.0650 O.2    66  ARG66      -0.2864
     88  CB        13.6520   13.0720   47.1790 C.3    66  ARG66       0.0334
     89  CG        14.1640   14.2500   48.0040 C.3    66  ARG66       0.0492
     90  CD        14.8970   15.2800   47.1590 C.3    66  ARG66       0.2205
     91  NE        15.7300   16.1650   47.9720 N.pl3  66  ARG66      -0.0865
     92  CZ        15.4910   17.4600   48.1660 C.cat  66  ARG66       0.5346
     93  NH1       16.3100   18.1750   48.9270 N.pl3  66  ARG66       0.1354
     94  NH2       14.4420   18.0430   47.5960 N.pl3  66  ARG66       0.1354
     95  N         18.9050    7.2740   41.7030 N.3    83  ASN83      -0.1225
     96  CA        20.2840    7.0020   41.3300 C.3    83  ASN83       0.1785
     97  C         21.2560    7.6050   42.3340 C.2    83  ASN83       0.2597
     98  O         20.9570    8.6150   42.9750 O.2    83  ASN83      -0.2718
     99  CB        20.5580    7.5430   39.9200 C.3    83  ASN83       0.1169
    100  CG        22.0200    7.4540   39.5270 C.2    83  ASN83       0.2627
    101  OD1       22.5020    6.4000   39.1130 O.2    83  ASN83      -0.2716
    102  ND2       22.7290    8.5720   39.6340 N.am   83  ASN83      -0.0877
    103  N         22.4090    6.9630   42.4840 N.am   84  ASP84      -0.1960
    104  CA        23.4990    7.5110   43.2780 C.3    84  ASP84       0.1840
    105  C         24.7760    6.7750   42.9020 C.2    84  ASP84       0.2622
    106  O         24.7800    5.5500   42.7710 O.2    84  ASP84      -0.2715
    107  CB        23.2290    7.3560   44.7740 C.3    84  ASP84       0.1450
    108  CG        24.0040    8.3560   45.6080 C.2    84  ASP84       0.3671
    109  OD1       25.2500    8.2630   45.6520 O.co2  84  ASP84      -0.2456
    110  OD2       23.3630    9.2330   46.2210 O.co2  84  ASP84      -0.2456
    111  N         25.8580    7.5240   42.7240 N.am   85  ILE85      -0.1963
    112  CA        27.1280    6.9480   42.3040 C.3    85  ILE85       0.1727
    113  C         27.7870    6.1500   43.4320 C.2    85  ILE85       0.2616
    114  O         28.6270    5.2860   43.1830 O.2    85  ILE85      -0.2715
    115  CB        28.0910    8.0470   41.8180 C.3    85  ILE85       0.0290
    116  CG1       29.1700    7.4600   40.9090 C.3    85  ILE85       0.0022
    117  CG2       28.6950    8.7920   43.0010 C.3    85  ILE85       0.0023
    118  CD1       30.0200    8.5170   40.2250 C.3    85  ILE85       0.0001
    119  N         27.3940    6.4440   44.6690 N.am   86  SER86      -0.1950
    120  CA        27.9770    5.7990   45.8450 C.3    86  SER86       0.1924
    121  C         27.3730    4.4200   46.1060 C.2    86  SER86       0.2314
    122  O         26.1520    4.2660   46.1730 O.2    86  SER86      -0.2863
    123  CB        27.8120    6.6940   47.0760 C.3    86  SER86       0.2116
    124  OG        27.9310    5.9470   48.2720 O.3    86  SER86      -0.2180
    125  N         25.5410    4.1440   49.3800 N.3    89  ALA89      -0.1245
    126  CA        24.3160    4.9070   49.2060 C.3    89  ALA89       0.1562
    127  C         23.2820    3.9600   48.6190 C.2    89  ALA89       0.2260
    128  O         22.1500    3.8880   49.0860 O.2    89  ALA89      -0.2867
    129  CB        24.5440    6.0870   48.2820 C.3    89  ALA89       0.0290
    130  N         24.8680    5.0720   38.8430 N.3   112  MET112     -0.1230
    131  CA        25.6660    5.7250   37.8150 C.3   112  MET112      0.1702
    132  C         25.9950    7.1540   38.2060 C.2   112  MET112      0.2592
    133  O         25.3850    7.7180   39.1140 O.2   112  MET112     -0.2718
    134  CB        24.9060    5.7310   36.4870 C.3   112  MET112      0.0401
    135  CG        24.4760    4.3560   36.0040 C.3   112  MET112      0.0596
    136  SD        23.1610    4.4510   34.7700 S.3   112  MET112     -0.1393
    137  CE        23.9930    5.3360   33.4490 C.3   112  MET112      0.0692
    138  N         26.9700    7.7320   37.5150 N.am  113  GLU113     -0.1966
    139  CA        27.1810    9.1680   37.5660 C.3   113  GLU113      0.1733
    140  C         25.8830    9.7880   37.0570 C.2   113  GLU113      0.2616
    141  O         25.2780    9.2800   36.1140 O.2   113  GLU113     -0.2715
    142  CB        28.3690    9.5600   36.6870 C.3   113  GLU113      0.0429
    143  CG        28.9350   10.9410   36.9700 C.3   113  GLU113      0.1163
    144  CD        28.1120   12.0420   36.3390 C.2   113  GLU113      0.3649
    145  OE1       27.4520   11.7760   35.3120 O.co2 113  GLU113     -0.2457
    146  OE2       28.1230   13.1710   36.8690 O.co2 113  GLU113     -0.2457
    147  N         25.4450   10.8710   37.6890 N.am  114  ALA114     -0.1977
    148  CA        24.1020   11.4010   37.4570 C.3   114  ALA114      0.1597
    149  C         23.8470   11.8490   36.0140 C.2   114  ALA114      0.2287
    150  O         22.7370   11.6910   35.4960 O.2   114  ALA114     -0.2864
    151  CB        23.7950   12.5280   38.4380 C.3   114  ALA114      0.0319
    152  N         19.3360   17.6290   43.6890 N.3   132  ASP132     -0.1225
    153  CA        19.6760   18.0420   45.0450 C.3   132  ASP132      0.1790
    154  C         21.1530   17.7900   45.3820 C.2   132  ASP132      0.2440
    155  O         21.4760   16.8870   46.1540 O.2   132  ASP132     -0.2733
    156  CB        18.7660   17.3000   46.0270 C.3   132  ASP132      0.1423
    157  CG        19.0810   17.6110   47.4730 C.2   132  ASP132      0.3668
    158  OD1       18.8930   16.7130   48.3200 O.co2 132  ASP132     -0.2456
    159  OD2       19.5080   18.7470   47.7640 O.co2 132  ASP132     -0.2456
    160  N         22.0570   18.5990   44.8100 N.am  133  PRO133     -0.2718
    161  CA        23.4930   18.3870   45.0260 C.3   133  PRO133      0.1535
    162  C         24.0300   19.0990   46.2630 C.2   133  PRO133      0.2598
    163  O         23.4180   20.0470   46.7590 O.2   133  PRO133     -0.2715
    164  CB        24.1140   19.0200   43.7810 C.3   133  PRO133      0.0310
    165  CG        23.1860   20.1650   43.4760 C.3   133  PRO133      0.0237
    166  CD        21.7990   19.6810   43.8420 C.3   133  PRO133      0.0939
    167  N         25.1730   18.6270   46.7520 N.am  134  PHE134     -0.1974
    168  CA        25.9870   19.3980   47.6760 C.3   134  PHE134      0.1639
    169  C         26.7200   20.4300   46.8330 C.2   134  PHE134      0.2290
    170  O         27.5240   20.0740   45.9740 O.2   134  PHE134     -0.2864
    171  CB        27.0130   18.5040   48.3750 C.3   134  PHE134      0.0560
    172  CG        26.4080   17.4410   49.2470 C.ar  134  PHE134     -0.0200
    173  CD1       25.3780   17.7440   50.1300 C.ar  134  PHE134     -0.0042
    174  CD2       26.8690   16.1340   49.1850 C.ar  134  PHE134     -0.0042
    175  CE1       24.8240   16.7620   50.9350 C.ar  134  PHE134     -0.0003
    176  CE2       26.3160   15.1470   49.9860 C.ar  134  PHE134     -0.0003
    177  CZ        25.2950   15.4620   50.8610 C.ar  134  PHE134     -0.0000
    178  N         24.9670   19.4790   36.2890 N.3   140  PHE140     -0.1241
    179  CA        23.8780   18.5640   35.9450 C.3   140  PHE140      0.1605
    180  C         22.7350   19.2180   35.1670 C.2   140  PHE140      0.2264
    181  O         21.8490   18.5310   34.6590 O.2   140  PHE140     -0.2867
    182  CB        23.3150   17.9170   37.2130 C.3   140  PHE140      0.0534
    183  CG        24.3710   17.3880   38.1420 C.ar  140  PHE140     -0.0203
    184  CD1       24.7180   18.0870   39.2870 C.ar  140  PHE140     -0.0042
    185  CD2       25.0200   16.1940   37.8680 C.ar  140  PHE140     -0.0042
    186  CE1       25.6880   17.6040   40.1460 C.ar  140  PHE140     -0.0003
    187  CE2       25.9920   15.7060   38.7240 C.ar  140  PHE140     -0.0003
    188  CZ        26.3280   16.4140   39.8640 C.ar  140  PHE140     -0.0000
@<TRIPOS>BOND
     1   137   136    1
     2   181   180    2
     3   136   135    1
     4   180   179    1
     5   145   144   ar
     6   150   149    2
     7   179   178    1
     8   179   182    1
     9   135   134    1
    10   149   148    1
    11   141   140    2
    12   144   146   ar
    13   144   143    1
    14   134   131    1
    15   142   143    1
    16   142   139    1
    17   140   139    1
    18   140   147   am
    19   182   183    1
    20   148   147    1
    21   148   151    1
    22   138   139    1
    23   138   132   am
    24   131   132    1
    25   131   130    1
    26   185   183   ar
    27   185   187   ar
    28   183   184   ar
    29   132   133    2
    30   187   188   ar
    31   101   100    2
    32   184   186   ar
    33   100   102   am
    34   100    99    1
    35   188   186   ar
    36    99    96    1
    37   118   116    1
    38    43    44    1
    39   116   115    1
    40    96    95    1
    41    96    97    1
    42    45    44    1
    43    45    46    2
    44    44    47    1
    45   115   112    1
    46   115   117    1
    47    58    56    1
    48    51    52    1
    49   112   111    1
    50   112   113    1
    51    97   103   am
    52    97    98    2
    53    56    57    1
    54    56    55    1
    55   103   104    1
    56   111   105   am
    57   106   105    2
    58    47    48    1
    59   105   104    1
    60   114   113    2
    61   104   107    1
    62    52    55    1
    63    52    53    1
    64   113   119   am
    65   165   164    1
    66   165   166    1
    67   152   153    1
    68   164   161    1
    69   166   160    1
    70    50    48   ar
    71    48    49   ar
    72   119   120    1
    73    53    59   am
    74    53    54    2
    75   107   108    1
    76   160   161    1
    77   160   154   am
    78    59    60    1
    79   161   162    1
    80   153   154    1
    81   153   156    1
    82    63    60    1
    83    63    64    1
    84   154   155    2
    85   108   109   ar
    86   108   110   ar
    87    60    61    1
    88   120   121    1
    89   120   123    1
    90   170   169    2
    91   156   157    1
    92   121   122    2
    93   162   167   am
    94   162   163    2
    95   167   168    1
    96   169   168    1
    97    87    86    2
    98   123   124    1
    99    86    85    1
   100    90    91    1
   101    90    89    1
   102    88    85    1
   103    88    89    1
   104    61    65   am
   105    61    62    2
   106    65    66    1
   107   157   159   ar
   108   157   158   ar
   109    94    92    1
   110   168   171    1
   111    91    92    2
   112    85    84    1
   113    92    93    1
   114   129   126    1
   115   171   172    1
   116   127   128    2
   117   127   126    1
   118    66    67    1
   119    66    69    1
   120    84    78   am
   121    68    67    2
   122   174   172   ar
   123   174   176   ar
   124   126   125    1
   125   172   173   ar
   126    67    70   am
   127    35    34    2
   128    78    79    2
   129    78    77    1
   130   176   177   ar
   131    76    77    1
   132   173   175   ar
   133    72    73    2
   134    72    71    1
   135    70    71    1
   136    33    34    1
   137    33    32    1
   138    33    36    1
   139    77    80    1
   140   177   175   ar
   141    37    36    1
   142    37    38    1
   143    71    74    1
   144    82    80    1
   145    10    11   ar
   146    10     8   ar
   147    38    39    1
   148    80    81    1
   149    11     9   ar
   150    75    74    1
   151     8     6   ar
   152    81    83    1
   153    42    40    1
   154     4     3    2
   155    39    40    2
   156     9     7   ar
   157    40    41    1
   158     6     7   ar
   159     6     5    1
   160     3     2    1
   161     3    12   am
   162     2     5    1
   163     2     1    1
   164    12    13    1
   165    13    16    1
   166    13    14    1
   167    19    21   ar
   168    19    17   ar
   169    16    17    1
   170    21    22   ar
   171    24    14   am
   172    24    25    1
   173    28    25    1
   174    28    29    1
   175    27    26    2
   176    31    29   am
   177    17    18   ar
   178    14    15    2
   179    25    26    1
   180    29    30    2
   181    22    23    1
   182    22    20   ar
   183    18    20   ar
