@<TRIPOS>MOLECULE
tmp/3axtA00.pdb
 195 190 0 0 0
SMALL
GASTEIGER

@<TRIPOS>ATOM
      1  N         25.8980   15.6600   54.7420 N.3    26  VAL26      -0.1231
      2  CA        25.7150   14.3450   55.3410 C.3    26  VAL26       0.1692
      3  C         24.7240   13.5190   54.5300 C.2    26  VAL26       0.2592
      4  O         23.9740   14.0580   53.7170 O.2    26  VAL26      -0.2718
      5  CB        25.2170   14.4590   56.7870 C.3    26  VAL26       0.0266
      6  CG1       26.3270   14.9750   57.6890 C.3    26  VAL26       0.0020
      7  CG2       24.0030   15.3720   56.8480 C.3    26  VAL26       0.0020
      8  N         24.7200   12.2100   54.7600 N.am   27  PHE27      -0.1962
      9  CA        23.8670   11.3030   54.0000 C.3    27  PHE27       0.1771
     10  C         22.4050   11.7450   54.0350 C.2    27  PHE27       0.2620
     11  O         21.7360   11.7900   53.0040 O.2    27  PHE27      -0.2715
     12  CB        24.0060    9.8730   54.5220 C.3    27  PHE27       0.0574
     13  CG        23.3970    8.8400   53.6230 C.ar   27  PHE27      -0.0200
     14  CD1       22.2950    8.1090   54.0300 C.ar   27  PHE27      -0.0042
     15  CD2       23.9230    8.6070   52.3640 C.ar   27  PHE27      -0.0042
     16  CE1       21.7350    7.1580   53.2020 C.ar   27  PHE27      -0.0003
     17  CE2       23.3670    7.6570   51.5310 C.ar   27  PHE27      -0.0003
     18  CZ        22.2710    6.9320   51.9510 C.ar   27  PHE27      -0.0000
     19  N         21.9180   12.0710   55.2270 N.am   28  TYR28      -0.1960
     20  CA        20.5620   12.5800   55.3940 C.3    28  TYR28       0.1771
     21  C         20.5350   13.7620   56.3540 C.2    28  TYR28       0.2619
     22  O         21.0070   13.6650   57.4850 O.2    28  TYR28      -0.2715
     23  CB        19.6220   11.4840   55.8970 C.3    28  TYR28       0.0574
     24  CG        18.2830   12.0100   56.3670 C.ar   28  TYR28      -0.0198
     25  CD1       18.0380   12.2350   57.7160 C.ar   28  TYR28      -0.0009
     26  CD2       17.2680   12.2920   55.4610 C.ar   28  TYR28      -0.0009
     27  CE1       16.8180   12.7200   58.1500 C.ar   28  TYR28       0.0417
     28  CE2       16.0440   12.7780   55.8870 C.ar   28  TYR28       0.0417
     29  CZ        15.8260   12.9900   57.2320 C.ar   28  TYR28       0.1957
     30  OH        14.6110   13.4730   57.6630 O.3    28  TYR28      -0.2866
     31  N         19.9730   14.8750   55.8980 N.am   29  ASN29      -0.1972
     32  CA        19.8710   16.0760   56.7160 C.3    29  ASN29       0.1688
     33  C         18.4150   16.4590   56.9610 C.2    29  ASN29       0.2292
     34  O         17.7110   16.8600   56.0360 O.2    29  ASN29      -0.2864
     35  CB        20.6290   17.2330   56.0580 C.3    29  ASN29       0.1181
     36  CG        20.5930   18.5030   56.8850 C.2    29  ASN29       0.2629
     37  OD1       20.1910   18.4930   58.0480 O.2    29  ASN29      -0.2716
     38  ND2       21.0220   19.6080   56.2850 N.am   29  ASN29      -0.0877
     39  N         12.2700   19.1990   50.9960 N.3    36  ARG36      -0.1245
     40  CA        11.6240   17.9870   50.5000 C.3    36  ARG36       0.1563
     41  C         10.0960   18.0930   50.5220 C.2    36  ARG36       0.2260
     42  O          9.4160   17.5030   49.6800 O.2    36  ARG36      -0.2867
     43  CB        12.0990   16.7560   51.2800 C.3    36  ARG36       0.0307
     44  CG        13.5160   16.3150   50.9330 C.3    36  ARG36       0.0489
     45  CD        13.9170   15.0610   51.6960 C.3    36  ARG36       0.2205
     46  NE        14.0760   15.3120   53.1250 N.pl3  36  ARG36      -0.0865
     47  CZ        15.2310   15.6250   53.7030 C.cat  36  ARG36       0.5346
     48  NH1       15.2850   15.8390   55.0100 N.pl3  36  ARG36       0.1354
     49  NH2       16.3330   15.7220   52.9720 N.pl3  36  ARG36       0.1354
     50  N         15.2490   10.8690   40.4500 N.3    58  ASP58      -0.1239
     51  CA        16.0170   11.3140   41.6070 C.3    58  ASP58       0.1674
     52  C         17.4880   10.9690   41.3860 C.2    58  ASP58       0.2266
     53  O         18.0010   10.0160   41.9710 O.2    58  ASP58      -0.2867
     54  CB        15.4980   10.6380   42.8780 C.3    58  ASP58       0.1410
     55  CG        16.0780   11.2430   44.1480 C.2    58  ASP58       0.3668
     56  OD1       17.0710   11.9950   44.0560 O.co2  58  ASP58      -0.2456
     57  OD2       15.5420   10.9610   45.2430 O.co2  58  ASP58      -0.2456
     58  N         20.3190   12.2580   42.2860 N.3    60  LEU60      -0.1231
     59  CA        21.1790   12.2710   43.4640 C.3    60  LEU60       0.1693
     60  C         20.3400   11.9070   44.6780 C.2    60  LEU60       0.2593
     61  O         19.9010   12.7750   45.4270 O.2    60  LEU60      -0.2718
     62  CB        21.8100   13.6500   43.6470 C.3    60  LEU60       0.0284
     63  CG        22.5100   14.2260   42.4150 C.3    60  LEU60       0.0019
     64  CD1       22.9640   15.6510   42.6740 C.3    60  LEU60       0.0001
     65  CD2       23.6820   13.3510   42.0110 C.3    60  LEU60       0.0001
     66  N         20.1300   10.6090   44.8660 N.am   61  SER61      -0.1938
     67  CA        19.1200   10.1090   45.7910 C.3    61  SER61       0.2055
     68  C         19.6010    9.9640   47.2340 C.2    61  SER61       0.2643
     69  O         18.8420   10.2160   48.1720 O.2    61  SER61      -0.2714
     70  CB        18.5750    8.7720   45.2830 C.3    61  SER61       0.2130
     71  OG        17.4230    8.3790   46.0040 O.3    61  SER61      -0.2179
     72  N         20.8540    9.5550   47.4070 N.am   62  ALA62      -0.1963
     73  CA        21.4100    9.3180   48.7380 C.3    62  ALA62       0.1728
     74  C         20.6430    8.2290   49.4780 C.2    62  ALA62       0.2616
     75  O         20.8120    7.0440   49.1950 O.2    62  ALA62      -0.2715
     76  CB        21.4270   10.6010   49.5510 C.3    62  ALA62       0.0334
     77  N         19.8030    8.6340   50.4270 N.am   63  SER63      -0.1950
     78  CA        19.0110    7.6830   51.2000 C.3    63  SER63       0.1924
     79  C         17.7900    7.2220   50.4140 C.2    63  SER63       0.2314
     80  O         17.1890    6.1940   50.7280 O.2    63  SER63      -0.2863
     81  CB        18.5730    8.2970   52.5310 C.3    63  SER63       0.2116
     82  OG        17.5940    9.3020   52.3340 O.3    63  SER63      -0.2180
     83  N         15.1490    9.1570   50.1060 N.3    65  ILE65      -0.1231
     84  CA        14.0090    9.7410   50.8050 C.3    65  ILE65       0.1692
     85  C         13.0330   10.4670   49.8770 C.2    65  ILE65       0.2591
     86  O         11.8180   10.3170   50.0120 O.2    65  ILE65      -0.2718
     87  CB        14.4680   10.7000   51.9250 C.3    65  ILE65       0.0266
     88  CG1       13.2580   11.3330   52.6150 C.3    65  ILE65       0.0019
     89  CG2       15.3980   11.7700   51.3680 C.3    65  ILE65       0.0020
     90  CD1       12.3420   10.3290   53.2790 C.3    65  ILE65       0.0001
     91  N         13.5610   11.2480   48.9380 N.am   66  ARG66      -0.1980
     92  CA        12.7110   12.0230   48.0370 C.3    66  ARG66       0.1597
     93  C         11.8580   11.1290   47.1400 C.2    66  ARG66       0.2287
     94  O         10.6420   11.3010   47.0550 O.2    66  ARG66      -0.2864
     95  CB        13.5440   12.9850   47.1880 C.3    66  ARG66       0.0334
     96  CG        14.1660   14.1300   47.9740 C.3    66  ARG66       0.0492
     97  CD        14.8970   15.0940   47.0550 C.3    66  ARG66       0.2205
     98  NE        15.6420   16.1070   47.7970 N.pl3  66  ARG66      -0.0865
     99  CZ        15.2230   17.3530   47.9960 C.cat  66  ARG66       0.5346
    100  NH1       15.9730   18.2030   48.6840 N.pl3  66  ARG66       0.1354
    101  NH2       14.0590   17.7520   47.5030 N.pl3  66  ARG66       0.1354
    102  N         18.8110    7.2780   41.7180 N.3    83  ASN83      -0.1225
    103  CA        20.1930    6.9790   41.3590 C.3    83  ASN83       0.1785
    104  C         21.2050    7.6150   42.3060 C.2    83  ASN83       0.2597
    105  O         20.9610    8.6820   42.8690 O.2    83  ASN83      -0.2718
    106  CB        20.4700    7.4220   39.9190 C.3    83  ASN83       0.1169
    107  CG        21.9340    7.3080   39.5410 C.2    83  ASN83       0.2627
    108  OD1       22.3900    6.2620   39.0790 O.2    83  ASN83      -0.2716
    109  ND2       22.6800    8.3900   39.7330 N.am   83  ASN83      -0.0877
    110  N         22.3410    6.9470   42.4780 N.am   84  ASP84      -0.1960
    111  CA        23.4380    7.4720   43.2810 C.3    84  ASP84       0.1840
    112  C         24.7130    6.6910   42.9830 C.2    84  ASP84       0.2622
    113  O         24.6980    5.4630   42.9150 O.2    84  ASP84      -0.2715
    114  CB        23.1090    7.3940   44.7720 C.3    84  ASP84       0.1450
    115  CG        23.9570    8.3380   45.6050 C.2    84  ASP84       0.3671
    116  OD1       25.1750    8.0930   45.7380 O.co2  84  ASP84      -0.2456
    117  OD2       23.4010    9.3260   46.1290 O.co2  84  ASP84      -0.2456
    118  N         25.8170    7.4070   42.8070 N.am   85  ILE85      -0.1963
    119  CA        27.0840    6.7810   42.4530 C.3    85  ILE85       0.1727
    120  C         27.7170    6.0670   43.6470 C.2    85  ILE85       0.2616
    121  O         28.6440    5.2740   43.4870 O.2    85  ILE85      -0.2715
    122  CB        28.0790    7.8140   41.8960 C.3    85  ILE85       0.0290
    123  CG1       29.1660    7.1220   41.0720 C.3    85  ILE85       0.0022
    124  CG2       28.6810    8.6400   43.0270 C.3    85  ILE85       0.0023
    125  CD1       30.1170    8.0850   40.3920 C.3    85  ILE85       0.0001
    126  N         27.2130    6.3530   44.8430 N.am   86  SER86      -0.1950
    127  CA        27.7480    5.7560   46.0620 C.3    86  SER86       0.1924
    128  C         27.1740    4.3660   46.3140 C.2    86  SER86       0.2314
    129  O         25.9720    4.1440   46.1720 O.2    86  SER86      -0.2863
    130  CB        27.4930    6.6650   47.2660 C.3    86  SER86       0.2116
    131  OG        27.9130    6.0430   48.4680 O.3    86  SER86      -0.2180
    132  N         25.1130    4.1710   49.5240 N.3    89  ALA89      -0.1245
    133  CA        23.9120    4.9250   49.2010 C.3    89  ALA89       0.1562
    134  C         22.9360    3.9810   48.5130 C.2    89  ALA89       0.2260
    135  O         21.7470    3.9680   48.8220 O.2    89  ALA89      -0.2867
    136  CB        24.2440    6.0970   48.3030 C.3    89  ALA89       0.0290
    137  N         24.8560    4.9090   38.8410 N.3   112  MET112     -0.1230
    138  CA        25.6240    5.5560   37.7900 C.3   112  MET112      0.1702
    139  C         25.9220    6.9960   38.1660 C.2   112  MET112      0.2592
    140  O         25.3490    7.5350   39.1120 O.2   112  MET112     -0.2718
    141  CB        24.8430    5.5310   36.4750 C.3   112  MET112      0.0401
    142  CG        24.3720    4.1500   36.0540 C.3   112  MET112      0.0596
    143  SD        23.1610    4.2210   34.7210 S.3   112  MET112     -0.1393
    144  CE        24.0680    5.1480   33.4830 C.3   112  MET112      0.0692
    145  N         26.8260    7.6170   37.4200 N.am  113  GLU113     -0.1966
    146  CA        27.0620    9.0440   37.5540 C.3   113  GLU113      0.1733
    147  C         25.8190    9.7700   37.0460 C.2   113  GLU113      0.2616
    148  O         25.2770    9.4260   35.9950 O.2   113  GLU113     -0.2715
    149  CB        28.3040    9.4570   36.7610 C.3   113  GLU113      0.0429
    150  CG        28.8520   10.8290   37.1210 C.3   113  GLU113      0.1163
    151  CD        28.0910   11.9500   36.4470 C.2   113  GLU113      0.3649
    152  OE1       27.4810   11.6980   35.3870 O.co2 113  GLU113     -0.2457
    153  OE2       28.1020   13.0820   36.9760 O.co2 113  GLU113     -0.2457
    154  N         25.3650   10.7600   37.8090 N.am  114  ALA114     -0.1977
    155  CA        24.1130   11.4620   37.5320 C.3   114  ALA114      0.1597
    156  C         23.8670   11.7470   36.0500 C.2   114  ALA114      0.2287
    157  O         22.7860   11.4650   35.5320 O.2   114  ALA114     -0.2864
    158  CB        24.0430   12.7510   38.3430 C.3   114  ALA114      0.0319
    159  N         19.2180   17.5530   43.7920 N.3   132  ASP132     -0.1225
    160  CA        19.6210   18.0090   45.1190 C.3   132  ASP132      0.1790
    161  C         21.0820   17.6620   45.4100 C.2   132  ASP132      0.2440
    162  O         21.3670   16.6640   46.0690 O.2   132  ASP132     -0.2733
    163  CB        18.7070   17.3940   46.1830 C.3   132  ASP132      0.1423
    164  CG        19.0920   17.8010   47.5950 C.2   132  ASP132      0.3668
    165  OD1       19.5510   18.9480   47.7830 O.co2 132  ASP132     -0.2456
    166  OD2       18.9330   16.9730   48.5170 O.co2 132  ASP132     -0.2456
    167  N         22.0150   18.4890   44.9110 N.am  133  PRO133     -0.2718
    168  CA        23.4520   18.2420   45.0590 C.3   133  PRO133      0.1535
    169  C         24.0860   19.0080   46.2190 C.2   133  PRO133      0.2598
    170  O         23.5180   19.9870   46.7080 O.2   133  PRO133     -0.2715
    171  CB        24.0120   18.7820   43.7470 C.3   133  PRO133      0.0310
    172  CG        23.1290   19.9640   43.4570 C.3   133  PRO133      0.0237
    173  CD        21.7500   19.6070   43.9860 C.3   133  PRO133      0.0939
    174  N         25.2590   18.5540   46.6530 N.am  134  PHE134     -0.1974
    175  CA        26.0840   19.3180   47.5800 C.3   134  PHE134      0.1639
    176  C         26.8190   20.3910   46.7890 C.2   134  PHE134      0.2290
    177  O         27.7140   20.0850   46.0020 O.2   134  PHE134     -0.2864
    178  CB        27.1050   18.4170   48.2770 C.3   134  PHE134      0.0560
    179  CG        26.5060   17.4700   49.2810 C.ar  134  PHE134     -0.0200
    180  CD1       25.5820   17.9110   50.2160 C.ar  134  PHE134     -0.0042
    181  CD2       26.8760   16.1350   49.2900 C.ar  134  PHE134     -0.0042
    182  CE1       25.0380   17.0330   51.1410 C.ar  134  PHE134     -0.0003
    183  CE2       26.3350   15.2550   50.2080 C.ar  134  PHE134     -0.0003
    184  CZ        25.4150   15.7030   51.1350 C.ar  134  PHE134     -0.0000
    185  N         24.9030   19.4320   36.3450 N.3   140  PHE140     -0.1241
    186  CA        23.8220   18.5070   36.0120 C.3   140  PHE140      0.1605
    187  C         22.6970   19.1590   35.2140 C.2   140  PHE140      0.2264
    188  O         21.8200   18.4730   34.6930 O.2   140  PHE140     -0.2867
    189  CB        23.2430   17.8850   37.2840 C.3   140  PHE140      0.0534
    190  CG        24.2820   17.3920   38.2470 C.ar  140  PHE140     -0.0203
    191  CD1       24.6240   18.1440   39.3590 C.ar  140  PHE140     -0.0042
    192  CD2       24.9160   16.1760   38.0430 C.ar  140  PHE140     -0.0042
    193  CE1       25.5810   17.6920   40.2500 C.ar  140  PHE140     -0.0003
    194  CE2       25.8710   15.7220   38.9310 C.ar  140  PHE140     -0.0003
    195  CZ        26.2030   16.4810   40.0340 C.ar  140  PHE140     -0.0000
@<TRIPOS>BOND
     1   144   143    1
     2   188   187    2
     3   143   142    1
     4   187   186    1
     5   152   151   ar
     6   157   156    2
     7   148   147    2
     8   186   185    1
     9   186   189    1
    10   156   155    1
    11   142   141    1
    12   151   153   ar
    13   151   150    1
    14   141   138    1
    15   149   150    1
    16   149   146    1
    17   147   146    1
    18   147   154   am
    19   189   190    1
    20   145   146    1
    21   145   139   am
    22   155   154    1
    23   155   158    1
    24   138   139    1
    25   138   137    1
    26   192   190   ar
    27   192   194   ar
    28   139   140    2
    29   190   191   ar
    30   194   195   ar
    31   108   107    2
    32   191   193   ar
    33   107   109   am
    34   107   106    1
    35   106   103    1
    36   195   193   ar
    37   125   123    1
    38    50    51    1
    39   123   122    1
    40   103   102    1
    41   103   104    1
    42    52    51    1
    43    52    53    2
    44    51    54    1
    45   122   119    1
    46   122   124    1
    47    65    63    1
    48    58    59    1
    49   104   110   am
    50   104   105    2
    51    63    64    1
    52    63    62    1
    53   119   118    1
    54   119   120    1
    55   110   111    1
    56   118   112   am
    57    54    55    1
    58   113   112    2
    59   112   111    1
    60   111   114    1
    61   172   171    1
    62   172   173    1
    63    59    62    1
    64    59    60    1
    65   121   120    2
    66   120   126   am
    67   171   168    1
    68   159   160    1
    69   173   167    1
    70    56    55   ar
    71    55    57   ar
    72    60    66   am
    73    60    61    2
    74   114   115    1
    75   126   127    1
    76    66    67    1
    77   167   168    1
    78   167   161   am
    79   168   169    1
    80   160   161    1
    81   160   163    1
    82    70    67    1
    83    70    71    1
    84   161   162    2
    85   115   116   ar
    86   115   117   ar
    87    67    68    1
    88   177   176    2
    89   127   128    1
    90   127   130    1
    91   129   128    2
    92   163   164    1
    93   169   174   am
    94   169   170    2
    95   174   175    1
    96   176   175    1
    97    94    93    2
    98    97    98    1
    99    97    96    1
   100    93    92    1
   101    95    96    1
   102    95    92    1
   103    68    72   am
   104    68    69    2
   105   130   131    1
   106    72    73    1
   107   101    99    1
   108   175   178    1
   109   164   165   ar
   110   164   166   ar
   111    98    99    2
   112    99   100    1
   113    92    91    1
   114   178   179    1
   115   136   133    1
   116   134   135    2
   117   134   133    1
   118    73    74    1
   119    73    76    1
   120    91    85   am
   121    75    74    2
   122   133   132    1
   123   179   181   ar
   124   179   180   ar
   125   181   183   ar
   126    74    77   am
   127    42    41    2
   128    85    86    2
   129    85    84    1
   130    83    84    1
   131   183   184   ar
   132   180   182   ar
   133    79    80    2
   134    79    78    1
   135    77    78    1
   136    40    41    1
   137    40    39    1
   138    40    43    1
   139    84    87    1
   140    44    43    1
   141    44    45    1
   142   184   182   ar
   143    78    81    1
   144    89    87    1
   145    17    18   ar
   146    17    15   ar
   147    45    46    1
   148    87    88    1
   149    18    16   ar
   150    82    81    1
   151    15    13   ar
   152    88    90    1
   153    49    47    1
   154    11    10    2
   155    46    47    2
   156    16    14   ar
   157    13    14   ar
   158    13    12    1
   159    47    48    1
   160     4     3    2
   161     9    10    1
   162     9    12    1
   163     9     8    1
   164    10    19   am
   165     3     8   am
   166     3     2    1
   167     1     2    1
   168    19    20    1
   169     2     5    1
   170    20    23    1
   171    20    21    1
   172    26    28   ar
   173    26    24   ar
   174    28    29   ar
   175    23    24    1
   176    31    21   am
   177    31    32    1
   178    34    33    2
   179    35    32    1
   180    35    36    1
   181    38    36   am
   182    21    22    2
   183    24    25   ar
   184    32    33    1
   185     5     7    1
   186     5     6    1
   187    36    37    2
   188    29    30    1
   189    29    27   ar
   190    25    27   ar
