@<TRIPOS>MOLECULE
tmp/3axwA00.pdb
 139 132 0 0 0
SMALL
GASTEIGER

@<TRIPOS>ATOM
      1  N         44.3900    5.9380   -7.1240 N.3    44  LEU44      -0.1245
      2  CA        43.1330    6.2000   -6.4370 C.3    44  LEU44       0.1561
      3  C         42.5670    4.9460   -5.7800 C.2    44  LEU44       0.2260
      4  O         42.1520    4.9740   -4.6220 O.2    44  LEU44      -0.2867
      5  CB        42.1100    6.7660   -7.4280 C.3    44  LEU44       0.0270
      6  CG        42.4190    8.0430   -8.2220 C.3    44  LEU44       0.0019
      7  CD1       41.3880    8.1640   -9.3440 C.3    44  LEU44       0.0001
      8  CD2       42.3920    9.2820   -7.3230 C.3    44  LEU44       0.0001
      9  N         43.9650    1.4490  -10.1660 N.3    52  VAL52      -0.1245
     10  CA        43.3520    2.5640  -10.8640 C.3    52  VAL52       0.1561
     11  C         44.0800    3.8620  -10.5680 C.2    52  VAL52       0.2260
     12  O         44.3760    4.1670   -9.4110 O.2    52  VAL52      -0.2867
     13  CB        41.8670    2.6560  -10.4470 C.3    52  VAL52       0.0252
     14  CG1       41.1570    3.7690  -11.2000 C.3    52  VAL52       0.0019
     15  CG2       41.1950    1.3110  -10.7030 C.3    52  VAL52       0.0019
     16  N         41.2310    8.4580  -16.4580 N.3    65  VAL65      -0.1245
     17  CA        41.4450    7.4570  -15.4200 C.3    65  VAL65       0.1561
     18  C         42.0000    6.2280  -16.1240 C.2    65  VAL65       0.2260
     19  O         41.4590    5.7880  -17.1350 O.2    65  VAL65      -0.2867
     20  CB        40.1210    7.0890  -14.6980 C.3    65  VAL65       0.0252
     21  CG1       40.3030    5.8160  -13.8700 C.3    65  VAL65       0.0019
     22  CG2       39.6750    8.2450  -13.8040 C.3    65  VAL65       0.0019
     23  N         43.0320    2.2510  -15.7980 N.3    67  LYS67      -0.1245
     24  CA        42.8470    1.0250  -15.0490 C.3    67  LYS67       0.1561
     25  C         43.7620    0.0000  -15.6920 C.2    67  LYS67       0.2260
     26  O         43.5300   -0.4330  -16.8270 O.2    67  LYS67      -0.2867
     27  CB        41.3880    0.5810  -15.1490 C.3    67  LYS67       0.0271
     28  CG        41.0000   -0.7160  -14.4460 C.3    67  LYS67       0.0035
     29  CD        39.6260   -1.0850  -14.9730 C.3    67  LYS67       0.0206
     30  CE        38.8770   -2.1040  -14.1630 C.3    67  LYS67       0.1093
     31  NZ        37.4900   -2.2330  -14.7380 N.3    67  LYS67      -0.1314
     32  N         35.2450   -7.4860  -20.7760 N.3    80  GLU80      -0.1245
     33  CA        35.0210   -6.1150  -20.3480 C.3    80  GLU80       0.1567
     34  C         35.2090   -5.1090  -21.4720 C.2    80  GLU80       0.2260
     35  O         34.4340   -4.1580  -21.5900 O.2    80  GLU80      -0.2867
     36  CB        35.9480   -5.7660  -19.1910 C.3    80  GLU80       0.0388
     37  CG        35.7420   -4.3690  -18.6710 C.3    80  GLU80       0.1160
     38  CD        36.6230   -4.0780  -17.4990 C.2    80  GLU80       0.3649
     39  OE1       37.5100   -4.9110  -17.2230 O.co2  80  GLU80      -0.2457
     40  OE2       36.4360   -3.0220  -16.8620 O.co2  80  GLU80      -0.2457
     41  N         32.3120   -2.7900  -22.8730 N.3    84  LEU84      -0.1245
     42  CA        32.4590   -1.3440  -22.8370 C.3    84  LEU84       0.1561
     43  C         32.2750   -0.7590  -24.2320 C.2    84  LEU84       0.2260
     44  O         31.6690    0.3000  -24.3870 O.2    84  LEU84      -0.2867
     45  CB        33.8290   -0.9530  -22.2640 C.3    84  LEU84       0.0270
     46  CG        33.9530   -1.0180  -20.7330 C.3    84  LEU84       0.0019
     47  CD1       35.4160   -1.1380  -20.3200 C.3    84  LEU84       0.0001
     48  CD2       33.3240    0.2230  -20.1150 C.3    84  LEU84       0.0001
     49  N         29.8800    4.9030  -18.4280 N.3    94  ILE94      -0.1245
     50  CA        31.2340    5.4470  -18.4170 C.3    94  ILE94       0.1561
     51  C         31.8330    5.2290  -19.8050 C.2    94  ILE94       0.2260
     52  O         31.6980    4.1440  -20.3760 O.2    94  ILE94      -0.2867
     53  CB        32.1170    4.7160  -17.3910 C.3    94  ILE94       0.0252
     54  CG1       33.4210    5.4880  -17.1730 C.3    94  ILE94       0.0019
     55  CG2       32.4000    3.2960  -17.8700 C.3    94  ILE94       0.0019
     56  CD1       33.2290    6.8280  -16.4670 C.3    94  ILE94       0.0001
     57  N         39.7220    5.5390  -19.2860 N.3   112  PHE112     -0.1227
     58  CA        38.3470    6.0170  -19.1250 C.3   112  PHE112      0.1736
     59  C         38.2840    7.5210  -18.9670 C.2   112  PHE112      0.2595
     60  O         39.2820    8.1610  -18.6590 O.2   112  PHE112     -0.2718
     61  CB        37.7310    5.4470  -17.8480 C.3   112  PHE112      0.0547
     62  CG        37.6170    3.9650  -17.8300 C.ar  112  PHE112     -0.0202
     63  CD1       36.5600    3.3380  -18.4610 C.ar  112  PHE112     -0.0042
     64  CD2       38.5540    3.1930  -17.1590 C.ar  112  PHE112     -0.0042
     65  CE1       36.4360    1.9630  -18.4250 C.ar  112  PHE112     -0.0003
     66  CE2       38.4380    1.8150  -17.1190 C.ar  112  PHE112     -0.0003
     67  CZ        37.3740    1.2000  -17.7530 C.ar  112  PHE112     -0.0000
     68  N         37.0880    8.0730  -19.1450 N.am  113  GLU113     -0.1965
     69  CA        36.8950    9.5070  -19.0020 C.3   113  GLU113      0.1733
     70  C         36.9920    9.7690  -17.4980 C.2   113  GLU113      0.2616
     71  O         36.7570    8.8730  -16.6910 O.2   113  GLU113     -0.2715
     72  CB        35.5090    9.9200  -19.5160 C.3   113  GLU113      0.0429
     73  CG        34.3360    9.1470  -18.9080 C.3   113  GLU113      0.1163
     74  CD        32.9740    9.7410  -19.2880 C.2   113  GLU113      0.3649
     75  OE1       32.7880   10.9600  -19.0900 O.co2 113  GLU113     -0.2457
     76  OE2       32.0880    9.0000  -19.7750 O.co2 113  GLU113     -0.2457
     77  N         37.3560   10.9900  -17.1220 N.am  114  HIS114     -0.1959
     78  CA        37.4800   11.3570  -15.7150 C.3   114  HIS114      0.1787
     79  C         36.1640   11.9550  -15.2620 C.2   114  HIS114      0.2620
     80  O         35.5160   12.6910  -16.0060 O.2   114  HIS114     -0.2715
     81  CB        38.5860   12.3990  -15.5300 C.3   114  HIS114      0.0785
     82  CG        38.6680   12.9630  -14.1420 C.ar  114  HIS114      0.0821
     83  ND1       39.0940   12.2240  -13.0600 N.ar  114  HIS114     -0.2267
     84  CD2       38.4210   14.2090  -13.6710 C.ar  114  HIS114      0.1154
     85  CE1       39.1120   12.9890  -11.9830 C.ar  114  HIS114      0.1986
     86  NE2       38.7070   14.2010  -12.3300 N.ar  114  HIS114     -0.2212
     87  N         35.7660   11.6310  -14.0430 N.am  115  VAL115     -0.1977
     88  CA        34.5250   12.1480  -13.5020 C.3   115  VAL115      0.1596
     89  C         34.8910   12.7990  -12.1740 C.2   115  VAL115      0.2287
     90  O         35.3280   12.1200  -11.2530 O.2   115  VAL115     -0.2864
     91  CB        33.4970   11.0060  -13.2860 C.3   115  VAL115      0.0276
     92  CG1       32.2110   11.5640  -12.6890 C.3   115  VAL115      0.0022
     93  CG2       33.2100   10.3010  -14.6240 C.3   115  VAL115      0.0022
     94  N         34.3000   13.2580   -9.3050 N.3   117  ASN117     -0.1240
     95  CA        33.5360   12.5670   -8.2730 C.3   117  ASN117      0.1653
     96  C         33.4850   13.0030   -6.8070 C.2   117  ASN117      0.2266
     97  O         34.5080   13.0620   -6.1370 O.2   117  ASN117     -0.2867
     98  CB        33.9800   11.1010   -8.3230 C.3   117  ASN117      0.1155
     99  CG        33.2260   10.2260   -7.3640 C.2   117  ASN117      0.2627
    100  OD1       32.0040   10.2630   -7.3110 O.2   117  ASN117     -0.2716
    101  ND2       33.9540    9.4130   -6.6140 N.am  117  ASN117     -0.0877
    102  N         29.5780    6.7720  -10.2990 N.3   162  MET162     -0.1245
    103  CA        30.3020    8.0300  -10.1260 C.3   162  MET162      0.1570
    104  C         29.3650    9.2240  -10.2340 C.2   162  MET162      0.2261
    105  O         28.5270    9.2640  -11.1280 O.2   162  MET162     -0.2867
    106  CB        31.3720    8.1840  -11.2130 C.3   162  MET162      0.0387
    107  CG        32.5750    7.2720  -11.0930 C.3   162  MET162      0.0595
    108  SD        33.6750    7.7730   -9.7630 S.3   162  MET162     -0.1393
    109  CE        32.9900    6.8350   -8.4400 C.3   162  MET162      0.0692
    110  N         30.1760    2.8510  -13.6340 N.3   173  ILE173     -0.1231
    111  CA        31.4680    2.2600  -13.9330 C.3   173  ILE173      0.1692
    112  C         31.6920    0.8120  -13.5260 C.2   173  ILE173      0.2592
    113  O         30.8060    0.1420  -12.9740 O.2   173  ILE173     -0.2718
    114  CB        32.5680    3.0780  -13.2660 C.3   173  ILE173      0.0266
    115  CG1       32.5830    2.7660  -11.7640 C.3   173  ILE173      0.0019
    116  CG2       32.2870    4.5660  -13.4590 C.3   173  ILE173      0.0020
    117  CD1       33.9210    3.0160  -11.0820 C.3   173  ILE173      0.0001
    118  N         32.9290    0.3830  -13.7760 N.am  174  ASP174     -0.1960
    119  CA        33.4200   -0.9570  -13.4930 C.3   174  ASP174      0.1840
    120  C         32.4870   -2.0290  -14.0000 C.2   174  ASP174      0.2622
    121  O         31.6080   -2.5260  -13.2900 O.2   174  ASP174     -0.2715
    122  CB        33.6780   -1.1750  -12.0070 C.3   174  ASP174      0.1450
    123  CG        34.6880   -2.2900  -11.7630 C.2   174  ASP174      0.3671
    124  OD1       35.0330   -3.0070  -12.7340 O.co2 174  ASP174     -0.2456
    125  OD2       35.1360   -2.4480  -10.6070 O.co2 174  ASP174     -0.2456
    126  N         32.7120   -2.3790  -15.2550 N.am  175  TRP175     -0.1974
    127  CA        31.9390   -3.3870  -15.9410 C.3   175  TRP175      0.1640
    128  C         32.7260   -4.6920  -15.9330 C.2   175  TRP175      0.2290
    129  O         32.4950   -5.5940  -16.7430 O.2   175  TRP175     -0.2864
    130  CB        31.6550   -2.8860  -17.3590 C.3   175  TRP175      0.0576
    131  CG        30.7410   -1.6790  -17.3310 C.ar  175  TRP175      0.0006
    132  CD1       31.0770   -0.3880  -17.0110 C.ar  175  TRP175      0.0946
    133  CD2       29.3210   -1.6860  -17.4950 C.ar  175  TRP175      0.0152
    134  NE1       29.9500    0.4010  -16.9690 N.ar  175  TRP175     -0.2442
    135  CE2       28.8530   -0.3740  -17.2790 C.ar  175  TRP175      0.0810
    136  CE3       28.3920   -2.6780  -17.8400 C.ar  175  TRP175      0.0012
    137  CZ2       27.5030   -0.0300  -17.3510 C.ar  175  TRP175      0.0191
    138  CZ3       27.0460   -2.3380  -17.9170 C.ar  175  TRP175      0.0001
    139  CH2       26.6170   -1.0230  -17.6890 C.ar  175  TRP175      0.0015
@<TRIPOS>BOND
     1    44    43    2
     2    43    42    1
     3    41    42    1
     4    42    45    1
     5    45    46    1
     6    35    34    2
     7    34    33    1
     8    32    33    1
     9    46    47    1
    10    46    48    1
    11    52    51    2
    12    33    36    1
    13    51    50    1
    14    76    74   ar
    15    72    69    1
    16    72    73    1
    17    74    75   ar
    18    74    73    1
    19    57    58    1
    20    36    37    1
    21    68    69    1
    22    68    59   am
    23    58    59    1
    24    58    61    1
    25    69    70    1
    26    59    60    2
    27    37    38    1
    28    63    65   ar
    29    63    62   ar
    30    49    50    1
    31    65    67   ar
    32    50    53    1
    33   138   136   ar
    34   138   139   ar
    35    55    53    1
    36    61    62    1
    37   136   133   ar
    38    62    64   ar
    39    67    66   ar
    40   139   137   ar
    41    38    39   ar
    42    38    40   ar
    43    70    77   am
    44    70    71    2
    45   133   131   ar
    46   133   135   ar
    47    53    54    1
    48   130   131    1
    49   130   127    1
    50   137   135   ar
    51   131   132   ar
    52   135   134   ar
    53    54    56    1
    54    64    66   ar
    55    19    18    2
    56    77    78    1
    57   132   134   ar
    58    26    25    2
    59   129   128    2
    60    16    17    1
    61    18    17    1
    62    80    79    2
    63   127   128    1
    64   127   126    1
    65    23    24    1
    66    78    81    1
    67    78    79    1
    68    25    24    1
    69    81    82    1
    70    17    20    1
    71    79    87   am
    72   126   120   am
    73    27    24    1
    74    27    28    1
    75    29    28    1
    76    29    30    1
    77    31    30    1
    78    20    21    1
    79    20    22    1
    80    93    91    1
    81    82    84   ar
    82    82    83   ar
    83    87    88    1
    84   120   119    1
    85   120   121    2
    86   111   110    1
    87   111   112    1
    88   111   114    1
    89   118   112   am
    90   118   119    1
    91    84    86   ar
    92   112   113    2
    93    88    91    1
    94    88    89    1
    95   119   122    1
    96   116   114    1
    97    91    92    1
    98   114   115    1
    99    83    85   ar
   100   124   123   ar
   101    86    85   ar
   102    89    90    2
   103   122   123    1
   104   115   117    1
   105   123   125   ar
   106   106   107    1
   107   106   103    1
   108    14    13    1
   109   105   104    2
   110   107   108    1
   111    10    11    1
   112    10    13    1
   113    10     9    1
   114    15    13    1
   115    11    12    2
   116   102   103    1
   117   104   103    1
   118   108   109    1
   119     7     6    1
   120    94    95    1
   121    98    95    1
   122    98    99    1
   123    95    96    1
   124     6     5    1
   125     6     8    1
   126     5     2    1
   127    99   100    2
   128    99   101   am
   129     1     2    1
   130    96    97    2
   131     2     3    1
   132     3     4    2
