@<TRIPOS>MOLECULE
tmp/3axyJ00.pdb
 218 207 0 0 0
SMALL
GASTEIGER

@<TRIPOS>ATOM
      1  N        -27.8640  -15.1850  -13.9230 N.3    43  ASN43      -0.1240
      2  CA       -26.6190  -14.9000  -13.2200 C.3    43  ASN43       0.1653
      3  C        -25.5480  -15.9580  -13.4930 C.2    43  ASN43       0.2266
      4  O        -24.4000  -15.6260  -13.8010 O.2    43  ASN43      -0.2867
      5  CB       -26.8590  -14.7450  -11.7180 C.3    43  ASN43       0.1155
      6  CG       -27.6150  -13.4610  -11.3700 C.2    43  ASN43       0.2627
      7  OD1      -27.6350  -12.5040  -12.1470 O.2    43  ASN43      -0.2716
      8  ND2      -28.2100  -13.4270  -10.1780 N.am   43  ASN43      -0.0877
      9  N        -24.0100  -15.5830  -16.6860 N.3    46  SER46      -0.1202
     10  CA       -23.1790  -14.3940  -16.6410 C.3    46  SER46       0.2020
     11  C        -21.8570  -14.7070  -15.9290 C.2    46  SER46       0.2618
     12  O        -20.7770  -14.3640  -16.4210 O.2    46  SER46      -0.2717
     13  CB       -23.9370  -13.2700  -15.9200 C.3    46  SER46       0.2103
     14  OG       -23.1410  -12.1080  -15.7790 O.3    46  SER46      -0.2182
     15  N        -21.9550  -15.3790  -14.7840 N.am   47  VAL47      -0.1979
     16  CA       -20.7830  -15.8010  -14.0220 C.3    47  VAL47       0.1595
     17  C        -19.8520  -16.6370  -14.8910 C.2    47  VAL47       0.2287
     18  O        -18.6310  -16.4760  -14.8350 O.2    47  VAL47      -0.2864
     19  CB       -21.1880  -16.5940  -12.7580 C.3    47  VAL47       0.0276
     20  CG1      -20.0130  -17.3900  -12.2260 C.3    47  VAL47       0.0022
     21  CG2      -21.7080  -15.6430  -11.6830 C.3    47  VAL47       0.0022
     22  N        -18.2350  -14.5050  -17.8180 N.3    50  LYS50      -0.1245
     23  CA       -17.3410  -13.5990  -17.1050 C.3    50  LYS50       0.1561
     24  C        -16.0240  -14.2900  -16.7990 C.2    50  LYS50       0.2260
     25  O        -14.9500  -13.7450  -17.0620 O.2    50  LYS50      -0.2867
     26  CB       -17.9870  -13.1100  -15.8020 C.3    50  LYS50       0.0271
     27  CG       -17.3010  -11.9200  -15.1720 C.3    50  LYS50       0.0035
     28  CD       -17.4130  -10.6820  -16.0640 C.3    50  LYS50       0.0206
     29  CE       -18.4810   -9.7040  -15.5640 C.3    50  LYS50       0.1093
     30  NZ       -19.3890   -9.2510  -16.6660 N.3    50  LYS50      -0.1314
     31  N         -8.6170  -12.1780  -20.7910 N.3    57  ARG57      -0.1245
     32  CA        -8.2750  -10.7610  -20.7280 C.3    57  ARG57       0.1563
     33  C         -6.9950  -10.6160  -19.9140 C.2    57  ARG57       0.2260
     34  O         -6.0280   -9.9800  -20.3580 O.2    57  ARG57      -0.2867
     35  CB        -9.4080   -9.9450  -20.1010 C.3    57  ARG57       0.0307
     36  CG       -10.7020   -9.9400  -20.9230 C.3    57  ARG57       0.0489
     37  CD       -11.5120   -8.6760  -20.6870 C.3    57  ARG57       0.2205
     38  NE       -12.1330   -8.7010  -19.3780 N.pl3  57  ARG57      -0.0865
     39  CZ       -12.5160   -7.6260  -18.6940 C.cat  57  ARG57       0.5346
     40  NH1      -12.3990   -6.4100  -19.2110 N.pl3  57  ARG57       0.1354
     41  NH2      -13.0620   -7.7840  -17.4970 N.pl3  57  ARG57       0.1354
     42  N        -30.1690   -5.5850  -17.7990 N.3   120  PHE120     -0.1241
     43  CA       -29.1120   -6.5780  -17.6070 C.3   120  PHE120      0.1605
     44  C        -28.4720   -6.9780  -18.9300 C.2   120  PHE120      0.2264
     45  O        -27.2470   -6.8980  -19.0920 O.2   120  PHE120     -0.2867
     46  CB       -29.6420   -7.8250  -16.9040 C.3   120  PHE120      0.0534
     47  CG       -28.5570   -8.7510  -16.4200 C.ar  120  PHE120     -0.0203
     48  CD1      -28.0680   -9.7590  -17.2400 C.ar  120  PHE120     -0.0042
     49  CD2      -28.0030   -8.5930  -15.1550 C.ar  120  PHE120     -0.0042
     50  CE1      -27.0690  -10.6120  -16.8010 C.ar  120  PHE120     -0.0003
     51  CE2      -27.0120   -9.4540  -14.6990 C.ar  120  PHE120     -0.0003
     52  CZ       -26.5550  -10.4750  -15.5200 C.ar  120  PHE120     -0.0000
     53  N        -26.6220   -4.2210  -21.0700 N.3   123  LYS123     -0.1245
     54  CA       -25.3290   -3.9980  -20.4200 C.3   123  LYS123      0.1561
     55  C        -24.3450   -5.0840  -20.8270 C.2   123  LYS123      0.2260
     56  O        -23.2370   -4.8000  -21.2860 O.2   123  LYS123     -0.2867
     57  CB       -25.4960   -4.0250  -18.9010 C.3   123  LYS123      0.0271
     58  CG       -24.1990   -3.9730  -18.1360 C.3   123  LYS123      0.0035
     59  CD       -24.4560   -3.9600  -16.6340 C.3   123  LYS123      0.0206
     60  CE       -23.2740   -4.5410  -15.8630 C.3   123  LYS123      0.1093
     61  NZ       -22.7150   -5.7460  -16.5500 N.3   123  LYS123     -0.1314
     62  N        -17.2960   -4.1630  -25.4100 N.3   130  ARG130     -0.1231
     63  CA       -16.1790   -3.4560  -24.7580 C.3   130  ARG130      0.1694
     64  C        -14.9130   -4.3210  -24.7250 C.2   130  ARG130      0.2592
     65  O        -13.8280   -3.8660  -25.0990 O.2   130  ARG130     -0.2718
     66  CB       -16.5540   -2.9910  -23.3400 C.3   130  ARG130      0.0321
     67  CG       -15.4220   -2.2750  -22.5870 C.3   130  ARG130      0.0489
     68  CD       -15.9020   -1.4450  -21.3740 C.3   130  ARG130      0.2205
     69  NE       -16.8200   -2.1810  -20.4960 N.pl3 130  ARG130     -0.0865
     70  CZ       -16.4460   -2.9390  -19.4610 C.cat 130  ARG130      0.5346
     71  NH1      -15.1610   -3.0480  -19.1310 N.pl3 130  ARG130      0.1354
     72  NH2      -17.3600   -3.5700  -18.7330 N.pl3 130  ARG130      0.1354
     73  N        -15.0640   -5.5890  -24.3490 N.am  131  TYR131     -0.1976
     74  CA       -13.9190   -6.4930  -24.3030 C.3   131  TYR131      0.1639
     75  C        -13.2360   -6.6630  -25.6550 C.2   131  TYR131      0.2290
     76  O        -12.0150   -6.5860  -25.7410 O.2   131  TYR131     -0.2864
     77  CB       -14.3060   -7.8460  -23.7230 C.3   131  TYR131      0.0560
     78  CG       -14.9510   -7.7300  -22.3760 C.ar  131  TYR131     -0.0198
     79  CD1      -16.0060   -8.5470  -22.0240 C.ar  131  TYR131     -0.0009
     80  CD2      -14.5710   -6.7330  -21.4920 C.ar  131  TYR131     -0.0009
     81  CE1      -16.6280   -8.4130  -20.8090 C.ar  131  TYR131      0.0417
     82  CE2      -15.1650   -6.6170  -20.2540 C.ar  131  TYR131      0.0417
     83  CZ       -16.1990   -7.4570  -19.9200 C.ar  131  TYR131      0.1957
     84  OH       -16.8050   -7.3550  -18.6810 O.3   131  TYR131     -0.2866
     85  N        -11.2090   -3.5880  -26.0960 N.3   134  GLU134     -0.1245
     86  CA        -9.9150   -3.6900  -25.4020 C.3   134  GLU134      0.1567
     87  C         -8.6930   -4.0350  -26.2690 C.2   134  GLU134      0.2260
     88  O         -7.5660   -3.6480  -25.9450 O.2   134  GLU134     -0.2867
     89  CB       -10.0220   -4.6470  -24.2210 C.3   134  GLU134      0.0388
     90  CG       -10.9080   -4.0880  -23.1600 C.3   134  GLU134      0.1160
     91  CD       -10.9890   -4.9550  -21.9440 C.2   134  GLU134      0.3649
     92  OE1      -11.5460   -4.4810  -20.9360 O.co2 134  GLU134     -0.2457
     93  OE2      -10.5110   -6.1060  -21.9980 O.co2 134  GLU134     -0.2457
     94  N        -28.8640   -2.5750   -8.1350 N.3   168  PRO168     -0.2102
     95  CA       -27.5310   -3.0360   -8.4640 C.3   168  PRO168      0.1504
     96  C        -27.3020   -3.1440   -9.9630 C.2   168  PRO168      0.2575
     97  O        -26.2170   -2.8230  -10.4510 O.2   168  PRO168     -0.2718
     98  CB       -27.4770   -4.4110   -7.7950 C.3   168  PRO168      0.0282
     99  CG       -28.2600   -4.2110   -6.5470 C.3   168  PRO168      0.0208
    100  CD       -29.4020   -3.2720   -6.9510 C.3   168  PRO168      0.0893
    101  N        -28.3300   -3.5290  -10.7020 N.am  169  ILE169     -0.1980
    102  CA       -28.1850   -3.5990  -12.1380 C.3   169  ILE169      0.1595
    103  C        -28.0380   -2.2200  -12.7760 C.2   169  ILE169      0.2287
    104  O        -27.1300   -2.0170  -13.5800 O.2   169  ILE169     -0.2864
    105  CB       -29.2850   -4.4380  -12.7940 C.3   169  ILE169      0.0276
    106  CG1      -29.1790   -5.8910  -12.3180 C.3   169  ILE169      0.0022
    107  CG2      -29.1710   -4.3770  -14.3100 C.3   169  ILE169      0.0022
    108  CD1      -30.3680   -6.7770  -12.7100 C.3   169  ILE169      0.0001
    109  N        -24.5070   -1.0790  -11.7350 N.3   172  GLY172     -0.1225
    110  CA       -23.4530   -1.7870  -12.4730 C.3   172  GLY172      0.1811
    111  C        -23.3660   -1.3750  -13.9350 C.2   172  GLY172      0.2280
    112  O        -22.3030   -1.4600  -14.5610 O.2   172  GLY172     -0.2866
    113  N        -21.5000    1.9970  -13.5800 N.3   175  LEU175     -0.1231
    114  CA       -20.1120    1.6270  -13.3510 C.3   175  LEU175      0.1693
    115  C        -19.4370    1.2420  -14.6710 C.2   175  LEU175      0.2592
    116  O        -18.4030    1.8070  -15.0340 O.2   175  LEU175     -0.2718
    117  CB       -20.0160    0.4960  -12.3150 C.3   175  LEU175      0.0284
    118  CG       -18.6400   -0.0460  -11.9300 C.3   175  LEU175      0.0019
    119  CD1      -17.7630    1.0520  -11.3660 C.3   175  LEU175      0.0001
    120  CD2      -18.7630   -1.2020  -10.9310 C.3   175  LEU175      0.0001
    121  N        -20.0540    0.3430  -15.4280 N.am  176  ASN176     -0.1974
    122  CA       -19.4140   -0.1340  -16.6400 C.3   176  ASN176      0.1688
    123  C        -19.3440    0.9130  -17.7410 C.2   176  ASN176      0.2292
    124  O        -18.2860    1.1030  -18.3600 O.2   176  ASN176     -0.2864
    125  CB       -20.0630   -1.4190  -17.1450 C.3   176  ASN176      0.1181
    126  CG       -19.5880   -2.6350  -16.3860 C.2   176  ASN176      0.2629
    127  OD1      -19.0180   -2.5130  -15.3010 O.2   176  ASN176     -0.2716
    128  ND2      -19.8410   -3.8150  -16.9340 N.am  176  ASN176     -0.0877
    129  N        -16.5700    3.2310  -17.0080 N.3   179  VAL179     -0.1245
    130  CA       -15.2650    2.6240  -17.3010 C.3   179  VAL179      0.1561
    131  C        -14.9950    2.6160  -18.8060 C.2   179  VAL179      0.2260
    132  O        -13.8990    2.9620  -19.2510 O.2   179  VAL179     -0.2867
    133  CB       -15.1510    1.1940  -16.7190 C.3   179  VAL179      0.0252
    134  CG1      -13.9640    0.4420  -17.3350 C.3   179  VAL179      0.0019
    135  CG2      -15.0330    1.2480  -15.2110 C.3   179  VAL179      0.0019
    136  N        -13.7730    6.0580  -19.6160 N.3   182  TYR182     -0.1227
    137  CA       -12.4030    6.2690  -19.1500 C.3   182  TYR182      0.1736
    138  C        -11.3520    5.5420  -19.9860 C.2   182  TYR182      0.2595
    139  O        -10.2790    6.0820  -20.2510 O.2   182  TYR182     -0.2718
    140  CB       -12.2440    5.8590  -17.6910 C.3   182  TYR182      0.0548
    141  CG       -11.0420    6.4940  -17.0440 C.ar  182  TYR182     -0.0200
    142  CD1      -11.1030    7.8000  -16.5850 C.ar  182  TYR182     -0.0009
    143  CD2       -9.8080    5.8470  -17.0250 C.ar  182  TYR182     -0.0009
    144  CE1      -10.0010    8.4170  -16.0360 C.ar  182  TYR182      0.0417
    145  CE2       -8.6840    6.4700  -16.5000 C.ar  182  TYR182      0.0417
    146  CZ        -8.7930    7.7620  -16.0100 C.ar  182  TYR182      0.1957
    147  OH        -7.7090    8.4080  -15.4560 O.3   182  TYR182     -0.2866
    148  N        -11.6140    4.2770  -20.2880 N.am  183  GLU183     -0.1979
    149  CA       -10.5620    3.3710  -20.7340 C.3   183  GLU183      0.1602
    150  C        -10.5770    3.2380  -22.2460 C.2   183  GLU183      0.2287
    151  O         -9.5370    3.1190  -22.8790 O.2   183  GLU183     -0.2864
    152  CB       -10.7350    1.9930  -20.0870 C.3   183  GLU183      0.0415
    153  CG        -9.6740    1.6600  -19.0440 C.3   183  GLU183      0.1163
    154  CD       -10.1460    0.6240  -18.0280 C.2   183  GLU183      0.3649
    155  OE1       -9.8390    0.8100  -16.8310 O.co2 183  GLU183     -0.2457
    156  OE2      -10.8000   -0.3800  -18.4190 O.co2 183  GLU183     -0.2457
    157  N        -22.2300   -2.5990   -2.3940 N.3   219  LEU219     -0.1231
    158  CA       -21.1110   -3.3290   -2.9760 C.3   219  LEU219      0.1693
    159  C        -20.6420   -2.6910   -4.2800 C.2   219  LEU219      0.2591
    160  O        -19.4480   -2.5480   -4.5080 O.2   219  LEU219     -0.2718
    161  CB       -21.5360   -4.7780   -3.2300 C.3   219  LEU219      0.0284
    162  CG       -20.5010   -5.8670   -3.5290 C.3   219  LEU219      0.0019
    163  CD1      -21.0230   -6.7430   -4.6730 C.3   219  LEU219      0.0001
    164  CD2      -19.1310   -5.2850   -3.8600 C.3   219  LEU219      0.0001
    165  N        -21.5880   -2.3010   -5.1250 N.am  220  ILE220     -0.1980
    166  CA       -21.2690   -1.6140   -6.3770 C.3   220  ILE220      0.1595
    167  C        -21.0030   -0.1250   -6.1800 C.2   220  ILE220      0.2287
    168  O        -20.2200    0.4770   -6.9060 O.2   220  ILE220     -0.2864
    169  CB       -22.3890   -1.7770   -7.4130 C.3   220  ILE220      0.0276
    170  CG1      -22.7690   -3.2570   -7.5490 C.3   220  ILE220      0.0022
    171  CG2      -21.9690   -1.1720   -8.7510 C.3   220  ILE220      0.0022
    172  CD1      -23.7380   -3.5220   -8.6650 C.3   220  ILE220      0.0001
    173  N        -17.4010    0.4100   -5.5250 N.3   223  LEU223     -0.1245
    174  CA       -16.5970    0.3690   -6.7380 C.3   223  LEU223      0.1561
    175  C        -16.6680    1.7080   -7.4790 C.2   223  LEU223      0.2260
    176  O        -15.6420    2.2550   -7.8910 O.2   223  LEU223     -0.2867
    177  CB       -17.0450   -0.7930   -7.6370 C.3   223  LEU223      0.0270
    178  CG       -17.1350   -2.1830   -6.9750 C.3   223  LEU223      0.0019
    179  CD1      -17.8060   -3.2230   -7.8610 C.3   223  LEU223      0.0001
    180  CD2      -15.7720   -2.6870   -6.5230 C.3   223  LEU223      0.0001
    181  N        -14.5760    4.0540   -5.3200 N.3   226  ASP226     -0.1225
    182  CA       -13.1440    3.7830   -5.4720 C.3   226  ASP226      0.1805
    183  C        -12.6090    4.2410   -6.8180 C.2   226  ASP226      0.2597
    184  O        -11.5270    4.8050   -6.8880 O.2   226  ASP226     -0.2718
    185  CB       -12.8390    2.2940   -5.2820 C.3   226  ASP226      0.1424
    186  CG       -13.1180    1.8160   -3.8700 C.2   226  ASP226      0.3668
    187  OD1      -13.2010    2.6640   -2.9500 O.co2 226  ASP226     -0.2456
    188  OD2      -13.2940    0.5920   -3.6930 O.co2 226  ASP226     -0.2456
    189  N        -13.3460    3.9480   -7.8880 N.am  227  ASN227     -0.1974
    190  CA       -12.9890    4.4310   -9.2170 C.3   227  ASN227      0.1688
    191  C        -12.9480    5.9520   -9.2450 C.2   227  ASN227      0.2292
    192  O        -12.0210    6.5440   -9.8110 O.2   227  ASN227     -0.2864
    193  CB       -13.9890    3.9320  -10.2690 C.3   227  ASN227      0.1181
    194  CG       -13.6710    2.5280  -10.7730 C.2   227  ASN227      0.2629
    195  OD1      -12.7660    1.8630  -10.2710 O.2   227  ASN227     -0.2716
    196  ND2      -14.4770    2.0440  -11.7130 N.am  227  ASN227     -0.0877
    197  N         -9.9870    7.1820   -7.5320 N.3   230  LEU230     -0.1231
    198  CA        -8.7910    6.9190   -8.3220 C.3   230  LEU230      0.1693
    199  C         -8.6230    7.9610   -9.4220 C.2   230  LEU230      0.2592
    200  O         -7.5550    8.5630   -9.5650 O.2   230  LEU230     -0.2718
    201  CB        -8.8460    5.5110   -8.9240 C.3   230  LEU230      0.0284
    202  CG        -7.7760    5.1950   -9.9780 C.3   230  LEU230      0.0019
    203  CD1       -6.4130    4.9570   -9.3190 C.3   230  LEU230      0.0001
    204  CD2       -8.1890    4.0000  -10.8210 C.3   230  LEU230      0.0001
    205  N         -9.6960    8.1880  -10.1740 N.am  231  TRP231     -0.1976
    206  CA        -9.6730    9.1120  -11.3000 C.3   231  TRP231      0.1640
    207  C         -9.4600   10.5620  -10.8510 C.2   231  TRP231      0.2290
    208  O         -9.0230   11.4020  -11.6360 O.2   231  TRP231     -0.2864
    209  CB       -10.9600    8.9830  -12.1200 C.3   231  TRP231      0.0576
    210  CG       -11.1450    7.6240  -12.7180 C.ar  231  TRP231      0.0006
    211  CD1      -10.1630    6.7220  -13.0050 C.ar  231  TRP231      0.0946
    212  CD2      -12.3720    7.0410  -13.1860 C.ar  231  TRP231      0.0152
    213  NE1      -10.7050    5.5950  -13.5670 N.ar  231  TRP231     -0.2442
    214  CE2      -12.0590    5.7610  -13.6880 C.ar  231  TRP231      0.0810
    215  CE3      -13.7070    7.4620  -13.1970 C.ar  231  TRP231      0.0012
    216  CZ2      -13.0270    4.9040  -14.2190 C.ar  231  TRP231      0.0191
    217  CZ3      -14.6790    6.5870  -13.6720 C.ar  231  TRP231      0.0001
    218  CH2      -14.3320    5.3210  -14.1800 C.ar  231  TRP231      0.0015
@<TRIPOS>BOND
     1    87    88    2
     2    87    86    1
     3    85    86    1
     4    76    75    2
     5    75    74    1
     6    62    63    1
     7    86    89    1
     8    65    64    2
     9    63    64    1
    10    63    66    1
    11    64    73   am
    12    73    74    1
    13    74    77    1
    14    89    90    1
    15    77    78    1
    16    66    67    1
    17    90    91    1
    18   151   150    2
    19    67    68    1
    20    78    79   ar
    21    78    80   ar
    22   150   149    1
    23    79    81   ar
    24    93    91   ar
    25    91    92   ar
    26    80    82   ar
    27    68    69    1
    28    56    55    2
    29    53    54    1
    30    36    37    1
    31    36    35    1
    32    55    54    1
    33    81    83   ar
    34    31    32    1
    35   149   148    1
    36   149   152    1
    37    32    35    1
    38    32    33    1
    39    37    38    1
    40    69    70    2
    41    54    57    1
    42    34    33    2
    43   148   138   am
    44    82    83   ar
    45   139   138    2
    46   152   153    1
    47   138   137    1
    48    83    84    1
    49   136   137    1
    50    70    71    1
    51    70    72    1
    52    38    39    2
    53   132   131    2
    54    40    39    1
    55   137   140    1
    56    45    44    2
    57   153   154    1
    58    44    43    1
    59    57    58    1
    60   131   130    1
    61    39    41    1
    62   156   154   ar
    63   124   123    2
    64    58    59    1
    65   154   155   ar
    66    22    23    1
    67    42    43    1
    68   123   122    1
    69   140   141    1
    70    43    46    1
    71   134   133    1
    72   130   129    1
    73   130   133    1
    74    48    50   ar
    75    48    47   ar
    76   125   122    1
    77   125   126    1
    78    23    24    1
    79    23    26    1
    80    25    24    2
    81   141   143   ar
    82   141   142   ar
    83   143   145   ar
    84   128   126   am
    85    46    47    1
    86    50    52   ar
    87   133   135    1
    88     9    10    1
    89    30    29    1
    90    10    11    1
    91    10    13    1
    92   122   121    1
    93    59    60    1
    94   142   144   ar
    95    61    60    1
    96   145   146   ar
    97    12    11    2
    98    47    49   ar
    99   126   127    2
   100    28    29    1
   101    28    27    1
   102   144   146   ar
   103   146   147    1
   104    11    15   am
   105    13    14    1
   106    26    27    1
   107    52    51   ar
   108   121   115   am
   109    49    51   ar
   110   116   115    2
   111    17    18    2
   112    17    16    1
   113    15    16    1
   114   115   114    1
   115   112   111    2
   116   107   105    1
   117   216   218   ar
   118   216   214   ar
   119   218   217   ar
   120    16    19    1
   121   111   110    1
   122     1     2    1
   123     4     3    2
   124   214   213   ar
   125   214   212   ar
   126   217   215   ar
   127   113   114    1
   128   104   103    2
   129   213   211   ar
   130     3     2    1
   131   114   117    1
   132     2     5    1
   133   215   212   ar
   134   212   210   ar
   135   211   210   ar
   136   105   106    1
   137   105   102    1
   138   103   102    1
   139    19    20    1
   140    19    21    1
   141   210   209    1
   142   108   106    1
   143   110   109    1
   144   117   118    1
   145     7     6    2
   146   102   101    1
   147   209   206    1
   148   118   119    1
   149   118   120    1
   150     5     6    1
   151   196   194   am
   152   208   207    2
   153     6     8   am
   154   206   207    1
   155   206   205    1
   156   204   202    1
   157   194   195    2
   158   194   193    1
   159   101    96   am
   160    97    96    2
   161   193   190    1
   162   205   199   am
   163   202   203    1
   164   202   201    1
   165    96    95    1
   166   192   191    2
   167   200   199    2
   168   199   198    1
   169   191   190    1
   170   190   189    1
   171   201   198    1
   172   171   169    1
   173   172   170    1
   174    95    94    1
   175    95    98    1
   176   198   197    1
   177    94   100    1
   178   176   175    2
   179   189   183   am
   180   179   178    1
   181    98    99    1
   182   177   178    1
   183   177   174    1
   184   170   169    1
   185   175   174    1
   186   169   166    1
   187   178   180    1
   188   100    99    1
   189   168   167    2
   190   184   183    2
   191   183   182    1
   192   174   173    1
   193   166   167    1
   194   166   165    1
   195   182   181    1
   196   182   185    1
   197   185   186    1
   198   165   159   am
   199   163   162    1
   200   160   159    2
   201   159   158    1
   202   186   188   ar
   203   186   187   ar
   204   164   162    1
   205   162   161    1
   206   161   158    1
   207   158   157    1
