@<TRIPOS>MOLECULE
tmp/3axzA00.pdb
 163 165 0 0 0
SMALL
GASTEIGER

@<TRIPOS>ATOM
      1  N         45.7700   -5.7290   13.7690 N.3    92  TYR92      -0.1227
      2  CA        45.3690   -4.3310   13.8790 C.3    92  TYR92       0.1736
      3  C         46.0190   -3.6220   12.6940 C.2    92  TYR92       0.2595
      4  O         47.2280   -3.7310   12.4780 O.2    92  TYR92      -0.2718
      5  CB        45.8470   -3.6940   15.1890 C.3    92  TYR92       0.0548
      6  CG        45.6360   -2.1860   15.2360 C.ar   92  TYR92      -0.0200
      7  CD1       44.4020   -1.6240   14.9140 C.ar   92  TYR92      -0.0009
      8  CD2       46.6740   -1.3270   15.5910 C.ar   92  TYR92      -0.0009
      9  CE1       44.2080   -0.2450   14.9430 C.ar   92  TYR92       0.0417
     10  CE2       46.4950    0.0560   15.6230 C.ar   92  TYR92       0.0417
     11  CZ        45.2600    0.5890   15.2980 C.ar   92  TYR92       0.1957
     12  OH        45.0780    1.9530   15.3200 O.3    92  TYR92      -0.2866
     13  N         45.2170   -2.9210   11.9060 N.am   93  LEU93      -0.1966
     14  CA        45.7590   -2.2060   10.7580 C.3    93  LEU93       0.1728
     15  C         46.2790   -0.8310   11.1590 C.2    93  LEU93       0.2617
     16  O         45.5940   -0.0690   11.8400 O.2    93  LEU93      -0.2715
     17  CB        44.6920   -2.1080    9.6700 C.3    93  LEU93       0.0311
     18  CG        44.4600   -3.5370    9.1660 C.3    93  LEU93       0.0022
     19  CD1       43.0490   -3.9640    9.4820 C.3    93  LEU93       0.0001
     20  CD2       44.7650   -3.6370    7.6810 C.3    93  LEU93       0.0001
     21  N         47.5130   -0.5310   10.7680 N.am   94  SER94      -0.1936
     22  CA        48.1070    0.7540   11.1040 C.3    94  SER94       0.2040
     23  C         49.4030    0.9710   10.3450 C.2    94  SER94       0.2485
     24  O         50.0260    0.0210    9.8860 O.2    94  SER94      -0.2729
     25  CB        48.3870    0.8470   12.6110 C.3    94  SER94       0.2129
     26  OG        49.6950    0.4090   12.9240 O.3    94  SER94      -0.2179
     27  N         49.8220    2.2390   10.2020 N.am   95  PRO95      -0.2715
     28  CA        51.0570    2.6010    9.4970 C.3    95  PRO95       0.1536
     29  C         52.3180    2.1200   10.2210 C.2    95  PRO95       0.2598
     30  O         53.3690    1.9910    9.6040 O.2    95  PRO95      -0.2715
     31  CB        50.9900    4.1270    9.4310 C.3    95  PRO95       0.0310
     32  CG        49.5120    4.4170    9.5070 C.3    95  PRO95       0.0237
     33  CD        49.0440    3.4410   10.5490 C.3    95  PRO95       0.0939
     34  N         52.2120    1.8650   11.5250 N.am   96  GLN96      -0.1978
     35  CA        53.3550    1.4000   12.3150 C.3    96  GLN96       0.1601
     36  C         53.5640   -0.1020   12.1780 C.2    96  GLN96       0.2287
     37  O         54.4850   -0.6540   12.7720 O.2    96  GLN96      -0.2864
     38  CB        53.1550    1.7000   13.8070 C.3    96  GLN96       0.0394
     39  CG        53.1530    3.1650   14.1760 C.3    96  GLN96       0.0908
     40  CD        51.9580    3.8880   13.6160 C.2    96  GLN96       0.2608
     41  OE1       50.8140    3.4750   13.8410 O.2    96  GLN96      -0.2717
     42  NE2       52.2080    4.9800   12.8790 N.am   96  GLN96      -0.0878
     43  N         40.5990    0.8250   13.0960 N.3   119  GLY119     -0.1210
     44  CA        40.4480    1.9810   13.9540 C.3   119  GLY119      0.1956
     45  C         39.9480    3.2070   13.2190 C.2   119  GLY119      0.2612
     46  O         39.9690    3.2640   11.9940 O.2   119  GLY119     -0.2717
     47  N         39.4690    4.1830   13.9800 N.am  120  ARG120     -0.1965
     48  CA        39.0060    5.4460   13.4230 C.3   120  ARG120      0.1729
     49  C         39.6380    6.5060   14.3110 C.2   120  ARG120      0.2616
     50  O         40.3450    6.1570   15.2620 O.2   120  ARG120     -0.2715
     51  CB        37.4820    5.5210   13.4360 C.3   120  ARG120      0.0348
     52  CG        36.8470    4.8100   12.2400 C.3   120  ARG120      0.0492
     53  CD        36.9760    5.6440   10.9740 C.3   120  ARG120      0.2205
     54  NE        36.7040    4.8740    9.7630 N.pl3 120  ARG120     -0.0865
     55  CZ        36.4950    5.4110    8.5620 C.cat 120  ARG120      0.5346
     56  NH1       36.5160    6.7300    8.4100 N.pl3 120  ARG120      0.1354
     57  NH2       36.2880    4.6290    7.5050 N.pl3 120  ARG120      0.1354
     58  N         39.4120    7.7810   14.0070 N.am  121  TYR121     -0.1960
     59  CA        40.0170    8.8700   14.7850 C.3   121  TYR121      0.1771
     60  C         41.5420    8.7120   14.6910 C.2   121  TYR121      0.2619
     61  O         42.0610    8.3870   13.6260 O.2   121  TYR121     -0.2715
     62  CB        39.5620    8.8020   16.2500 C.3   121  TYR121      0.0574
     63  CG        38.0670    8.6060   16.4030 C.ar  121  TYR121     -0.0198
     64  CD1       37.1660    9.5540   15.9180 C.ar  121  TYR121     -0.0009
     65  CD2       37.5560    7.4370   16.9620 C.ar  121  TYR121     -0.0009
     66  CE1       35.7900    9.3360   15.9790 C.ar  121  TYR121      0.0417
     67  CE2       36.1860    7.2060   17.0270 C.ar  121  TYR121      0.0417
     68  CZ        35.3110    8.1560   16.5320 C.ar  121  TYR121      0.1957
     69  OH        33.9600    7.9150   16.5680 O.3   121  TYR121     -0.2866
     70  N         42.2570    8.9190   15.7940 N.am  122  GLU122     -0.1963
     71  CA        43.7140    8.7870   15.7880 C.3   122  GLU122      0.1733
     72  C         44.1890    7.3560   16.0340 C.2   122  GLU122      0.2616
     73  O         45.3850    7.1150   16.1720 O.2   122  GLU122     -0.2715
     74  CB        44.3490    9.6910   16.8500 C.3   122  GLU122      0.0429
     75  CG        44.1170   11.1710   16.6510 C.3   122  GLU122      0.1163
     76  CD        44.6060   11.6470   15.2990 C.2   122  GLU122      0.3649
     77  OE1       45.8070   11.4520   14.9970 O.co2 122  GLU122     -0.2457
     78  OE2       43.7840   12.2130   14.5430 O.co2 122  GLU122     -0.2457
     79  N         43.2630    6.4080   16.0990 N.am  123  GLY123     -0.1955
     80  CA        43.6640    5.0330   16.3330 C.3   123  GLY123      0.1869
     81  C         43.1600    4.4490   17.6400 C.2   123  GLY123      0.2309
     82  O         42.1220    4.8570   18.1510 O.2   123  GLY123     -0.2863
     83  N         49.7140   -4.6320   10.8490 N.3   137  TRP137     -0.1227
     84  CA        50.0480   -4.6100    9.4300 C.3   137  TRP137      0.1737
     85  C         49.6290   -3.2950    8.8020 C.2   137  TRP137      0.2596
     86  O         48.5660   -2.7480    9.1240 O.2   137  TRP137     -0.2718
     87  CB        49.3400   -5.7390    8.6710 C.3   137  TRP137      0.0564
     88  CG        49.8760   -7.0940    8.9300 C.ar  137  TRP137      0.0003
     89  CD1       49.5960   -7.8970    9.9960 C.ar  137  TRP137      0.0946
     90  CD2       50.7790   -7.8280    8.0990 C.ar  137  TRP137      0.0152
     91  NE1       50.2640   -9.0900    9.8780 N.ar  137  TRP137     -0.2442
     92  CE2       51.0000   -9.0740    8.7230 C.ar  137  TRP137      0.0810
     93  CE3       51.4220   -7.5550    6.8880 C.ar  137  TRP137      0.0012
     94  CZ2       51.8370  -10.0490    8.1740 C.ar  137  TRP137      0.0191
     95  CZ3       52.2510   -8.5240    6.3420 C.ar  137  TRP137      0.0001
     96  CH2       52.4510   -9.7560    6.9850 C.ar  137  TRP137      0.0015
     97  N         50.4680   -2.7990    7.9010 N.am  138  SER138     -0.1938
     98  CA        50.1880   -1.5670    7.1760 C.3   138  SER138      0.2055
     99  C         50.1020   -1.8820    5.6930 C.2   138  SER138      0.2643
    100  O         50.8670   -2.7090    5.1990 O.2   138  SER138     -0.2714
    101  CB        51.3070   -0.5610    7.3900 C.3   138  SER138      0.2130
    102  OG        51.2100    0.4760    6.4340 O.3   138  SER138     -0.2179
    103  N         49.1810   -1.2410    4.9750 N.am  139  ILE139     -0.1963
    104  CA        49.0830   -1.4970    3.5420 C.3   139  ILE139      0.1727
    105  C         49.9870   -0.5530    2.7550 C.2   139  ILE139      0.2616
    106  O         50.1440   -0.7100    1.5490 O.2   139  ILE139     -0.2715
    107  CB        47.6430   -1.3470    2.9690 C.3   139  ILE139      0.0290
    108  CG1       47.1570    0.0920    3.1110 C.3   139  ILE139      0.0022
    109  CG2       46.6950   -2.3230    3.6400 C.3   139  ILE139      0.0023
    110  CD1       45.9390    0.3960    2.2230 C.3   139  ILE139      0.0001
    111  N         50.5840    0.4230    3.4300 N.am  140  GLY140     -0.1955
    112  CA        51.4600    1.3520    2.7340 C.3   140  GLY140      0.1869
    113  C         51.8960    2.5300    3.5810 C.2   140  GLY140      0.2309
    114  O         51.2560    2.8500    4.5870 O.2   140  GLY140     -0.2863
    115  N         51.4830    5.6220    3.9800 N.3   142  TYR142     -0.1227
    116  CA        50.5880    6.7570    3.7920 C.3   142  TYR142      0.1736
    117  C         49.5070    6.6290    4.8550 C.2   142  TYR142      0.2595
    118  O         49.2500    5.5290    5.3380 O.2   142  TYR142     -0.2718
    119  CB        49.9920    6.7630    2.3750 C.3   142  TYR142      0.0548
    120  CG        49.5770    5.4120    1.8350 C.ar  142  TYR142     -0.0200
    121  CD1       48.4010    4.7970    2.2660 C.ar  142  TYR142     -0.0009
    122  CD2       50.3620    4.7460    0.8850 C.ar  142  TYR142     -0.0009
    123  CE1       48.0120    3.5560    1.7680 C.ar  142  TYR142      0.0417
    124  CE2       49.9840    3.5000    0.3810 C.ar  142  TYR142      0.0417
    125  CZ        48.8070    2.9110    0.8300 C.ar  142  TYR142      0.1957
    126  OH        48.4270    1.6730    0.3670 O.3   142  TYR142     -0.2866
    127  N         48.8930    7.7480    5.2300 N.am  143  VAL143     -0.1966
    128  CA        47.8730    7.7610    6.2730 C.3   143  VAL143      0.1727
    129  C         46.4310    7.8640    5.7870 C.2   143  VAL143      0.2616
    130  O         46.0720    8.8000    5.0680 O.2   143  VAL143     -0.2715
    131  CB        48.1240    8.9200    7.2510 C.3   143  VAL143      0.0290
    132  CG1       47.0590    8.9080    8.3610 C.3   143  VAL143      0.0023
    133  CG2       49.5390    8.8100    7.8290 C.3   143  VAL143      0.0023
    134  N         45.6010    6.9090    6.2020 N.am  144  LEU144     -0.1963
    135  CA        44.1900    6.8950    5.8170 C.3   144  LEU144      0.1728
    136  C         43.3170    7.3180    6.9990 C.2   144  LEU144      0.2617
    137  O         43.7900    7.3640    8.1320 O.2   144  LEU144     -0.2715
    138  CB        43.7950    5.4990    5.3230 C.3   144  LEU144      0.0311
    139  CG        44.6910    4.9660    4.1940 C.3   144  LEU144      0.0022
    140  CD1       44.1380    3.6580    3.6710 C.3   144  LEU144      0.0001
    141  CD2       44.7650    5.9760    3.0660 C.3   144  LEU144      0.0001
    142  N         42.0490    7.6250    6.7360 N.am  145  THR145     -0.1937
    143  CA        41.1350    8.0680    7.7860 C.3   145  THR145      0.2028
    144  C         40.5640    6.9340    8.6400 C.2   145  THR145      0.2643
    145  O         39.9000    7.1820    9.6400 O.2   145  THR145     -0.2714
    146  CB        39.9530    8.8640    7.1880 C.3   145  THR145      0.1808
    147  OG1       39.1310    7.9940    6.3960 O.3   145  THR145     -0.2208
    148  CG2       40.4640    9.9880    6.3160 C.3   145  THR145      0.0379
    149  N         40.8120    5.6910    8.2400 N.am  146  GLY146     -0.1939
    150  CA        40.3010    4.5610    8.9990 C.3   146  GLY146      0.2014
    151  C         40.9190    3.2570    8.5460 C.2   146  GLY146      0.2639
    152  O         41.4910    3.1900    7.4640 O.2   146  GLY146     -0.2714
    153  N         40.8080    2.2170    9.3670 N.am  147  GLY147     -0.1954
    154  CA        41.3820    0.9380    8.9960 C.3   147  GLY147      0.1869
    155  C         40.5310    0.0780    8.0670 C.2   147  GLY147      0.2309
    156  O         40.9770   -0.9820    7.6310 O.2   147  GLY147     -0.2863
    157  N         42.1420   -0.3450    4.5410 N.3   150  PRO150     -0.2116
    158  CA        43.2940   -1.2360    4.6830 C.3   150  PRO150      0.1372
    159  C         42.8250   -2.6690    4.9550 C.2   150  PRO150      0.2244
    160  O         43.3580   -3.6270    4.4000 O.2   150  PRO150     -0.2868
    161  CB        44.0390   -0.6380    5.8700 C.3   150  PRO150      0.0268
    162  CG        43.7660    0.8210    5.7180 C.3   150  PRO150      0.0207
    163  CD        42.2790    0.8310    5.4160 C.3   150  PRO150      0.0892
@<TRIPOS>BOND
     1   126   125    1
     2   124   125   ar
     3   124   122   ar
     4   125   123   ar
     5   122   120   ar
     6   106   105    2
     7   123   121   ar
     8   120   121   ar
     9   120   119    1
    10   110   108    1
    11   119   116    1
    12   112   111    1
    13   112   113    1
    14   105   111   am
    15   105   104    1
    16   107   108    1
    17   107   104    1
    18   107   109    1
    19   141   139    1
    20   104   103    1
    21   113   114    2
    22   140   139    1
    23   116   115    1
    24   116   117    1
    25   139   138    1
    26   160   159    2
    27   157   158    1
    28   157   163    1
    29   158   159    1
    30   158   161    1
    31   117   127   am
    32   117   118    2
    33   103    99   am
    34   130   129    2
    35   100    99    2
    36   127   128    1
    37   138   135    1
    38   163   162    1
    39    99    98    1
    40   162   161    1
    41   129   134   am
    42   129   128    1
    43   135   134    1
    44   135   136    1
    45   128   131    1
    46   148   146    1
    47    95    93   ar
    48    95    96   ar
    49   147   146    1
    50   102   101    1
    51   142   136   am
    52   142   143    1
    53    93    90   ar
    54    96    94   ar
    55   136   137    2
    56    98   101    1
    57    98    97    1
    58   146   143    1
    59   131   133    1
    60   131   132    1
    61   152   151    2
    62    57    55    1
    63   156   155    2
    64    20    18    1
    65   143   144    1
    66    97    85   am
    67   155   154    1
    68    90    92   ar
    69    90    88   ar
    70    94    92   ar
    71   149   144   am
    72   149   150    1
    73    56    55    1
    74   151   150    1
    75   151   153   am
    76    55    54    2
    77   144   145    2
    78    87    88    1
    79    87    84    1
    80    92    91   ar
    81    85    86    2
    82    85    84    1
    83    88    89   ar
    84   154   153    1
    85    18    19    1
    86    18    17    1
    87    84    83    1
    88    31    28    1
    89    31    32    1
    90    28    27    1
    91    28    29    1
    92    32    33    1
    93    30    29    2
    94    17    14    1
    95    54    53    1
    96    91    89   ar
    97    24    23    2
    98    27    23   am
    99    27    33    1
   100    29    34   am
   101    23    22    1
   102    14    15    1
   103    14    13    1
   104    21    22    1
   105    21    15   am
   106    53    52    1
   107    22    25    1
   108    15    16    2
   109    34    35    1
   110    13     3   am
   111    46    45    2
   112    36    35    1
   113    36    37    2
   114    52    51    1
   115    35    38    1
   116     4     3    2
   117    25    26    1
   118     3     2    1
   119    42    40   am
   120    43    44    1
   121    45    44    1
   122    45    47   am
   123    48    51    1
   124    48    47    1
   125    48    49    1
   126    40    41    2
   127    40    39    1
   128    61    60    2
   129     1     2    1
   130    38    39    1
   131     2     5    1
   132    58    49   am
   133    58    59    1
   134    49    50    2
   135    78    76   ar
   136    60    59    1
   137    60    70   am
   138    59    62    1
   139     7     9   ar
   140     7     6   ar
   141     9    11   ar
   142    77    76   ar
   143     5     6    1
   144     6     8   ar
   145    11    12    1
   146    11    10   ar
   147    76    75    1
   148     8    10   ar
   149    71    70    1
   150    71    72    1
   151    71    74    1
   152    64    66   ar
   153    64    63   ar
   154    66    68   ar
   155    72    79   am
   156    72    73    2
   157    79    80    1
   158    62    63    1
   159    80    81    1
   160    63    65   ar
   161    68    69    1
   162    68    67   ar
   163    75    74    1
   164    65    67   ar
   165    81    82    2
