@<TRIPOS>MOLECULE
tmp/3ay0A00.pdb
 123 118 0 0 0
SMALL
GASTEIGER

@<TRIPOS>ATOM
      1  N        -48.8550   -2.8920  -41.7100 N.3   161  TYR161     -0.1241
      2  CA       -48.4860   -4.1020  -40.9710 C.3   161  TYR161      0.1605
      3  C        -48.4120   -5.3410  -41.8620 C.2   161  TYR161      0.2264
      4  O        -49.2430   -5.5350  -42.7490 O.2   161  TYR161     -0.2867
      5  CB       -49.4990   -4.3860  -39.8570 C.3   161  TYR161      0.0534
      6  CG       -49.1010   -5.5470  -38.9700 C.ar  161  TYR161     -0.0201
      7  CD1      -48.3080   -5.3440  -37.8270 C.ar  161  TYR161     -0.0009
      8  CD2      -49.4680   -6.8550  -39.2930 C.ar  161  TYR161     -0.0009
      9  CE1      -47.8890   -6.4110  -37.0290 C.ar  161  TYR161      0.0417
     10  CE2      -49.0480   -7.9340  -38.5040 C.ar  161  TYR161      0.0417
     11  CZ       -48.2580   -7.6990  -37.3750 C.ar  161  TYR161      0.1957
     12  OH       -47.8150   -8.7590  -36.6170 O.3   161  TYR161     -0.2866
     13  N        -61.5000   -9.8480  -41.8330 N.3   186  MET186     -0.1230
     14  CA       -61.6920   -8.6900  -40.9610 C.3   186  MET186      0.1702
     15  C        -60.5100   -7.7220  -40.8420 C.2   186  MET186      0.2592
     16  O        -60.7210   -6.5150  -40.7640 O.2   186  MET186     -0.2718
     17  CB       -62.1620   -9.1460  -39.5770 C.3   186  MET186      0.0401
     18  CG       -63.6220   -9.5930  -39.5480 C.3   186  MET186      0.0596
     19  SD       -64.1380  -10.2850  -37.9440 S.3   186  MET186     -0.1393
     20  CE       -64.5870   -8.8340  -37.0480 C.3   186  MET186      0.0692
     21  N        -59.2800   -8.2360  -40.8290 N.am  187  PHE187     -0.1976
     22  CA       -58.0810   -7.3830  -40.7520 C.3   187  PHE187      0.1639
     23  C        -57.1720   -7.9380  -41.8200 C.2   187  PHE187      0.2290
     24  O        -56.3360   -8.8100  -41.5580 O.2   187  PHE187     -0.2864
     25  CB       -57.4350   -7.4860  -39.3720 C.3   187  PHE187      0.0560
     26  CG       -58.4340   -7.5030  -38.2690 C.ar  187  PHE187     -0.0200
     27  CD1      -58.9540   -8.7110  -37.8070 C.ar  187  PHE187     -0.0042
     28  CD2      -58.9590   -6.3120  -37.7750 C.ar  187  PHE187     -0.0042
     29  CE1      -59.9910   -8.7340  -36.8720 C.ar  187  PHE187     -0.0003
     30  CE2      -59.9960   -6.3210  -36.8410 C.ar  187  PHE187     -0.0003
     31  CZ       -60.5150   -7.5340  -36.3890 C.ar  187  PHE187     -0.0000
     32  N        -54.7600   -6.3400  -44.0000 N.3   189  GLY189     -0.1225
     33  CA       -53.3830   -5.9530  -44.2320 C.3   189  GLY189      0.1811
     34  C        -53.1980   -5.7630  -45.7250 C.2   189  GLY189      0.2280
     35  O        -54.1450   -5.4460  -46.4270 O.2   189  GLY189     -0.2866
     36  N        -59.9900   -3.3660  -44.1260 N.3   207  ASP207     -0.1225
     37  CA       -58.8690   -2.8280  -43.3710 C.3   207  ASP207      0.1805
     38  C        -59.0290   -1.3360  -43.2270 C.2   207  ASP207      0.2598
     39  O        -59.3150   -0.6360  -44.1940 O.2   207  ASP207     -0.2718
     40  CB       -57.5240   -3.1510  -44.0230 C.3   207  ASP207      0.1424
     41  CG       -56.3530   -2.8970  -43.0820 C.2   207  ASP207      0.3668
     42  OD1      -56.0820   -1.7200  -42.7740 O.co2 207  ASP207     -0.2456
     43  OD2      -55.7090   -3.8690  -42.6350 O.co2 207  ASP207     -0.2456
     44  N        -58.8380   -0.8650  -42.0020 N.am  208  ILE208     -0.1966
     45  CA       -58.9690    0.5410  -41.6550 C.3   208  ILE208      0.1727
     46  C        -57.7850    1.4210  -42.0710 C.2   208  ILE208      0.2616
     47  O        -57.9300    2.6360  -42.1670 O.2   208  ILE208     -0.2715
     48  CB       -59.2130    0.6750  -40.1310 C.3   208  ILE208      0.0290
     49  CG1      -59.6090    2.1030  -39.7580 C.3   208  ILE208      0.0022
     50  CG2      -57.9740    0.2340  -39.3710 C.3   208  ILE208      0.0023
     51  CD1      -60.2610    2.1810  -38.3910 C.3   208  ILE208      0.0001
     52  N        -56.6200    0.8230  -42.3130 N.am  209  ASN209     -0.1972
     53  CA       -55.4550    1.5970  -42.7250 C.3   209  ASN209      0.1688
     54  C        -55.4750    1.7950  -44.2400 C.2   209  ASN209      0.2292
     55  O        -55.3790    0.8380  -45.0120 O.2   209  ASN209     -0.2864
     56  CB       -54.1610    0.8980  -42.2860 C.3   209  ASN209      0.1181
     57  CG       -52.9200    1.4500  -42.9900 C.2   209  ASN209      0.2629
     58  OD1      -52.9390    2.5520  -43.5410 O.2   209  ASN209     -0.2716
     59  ND2      -51.8340    0.6830  -42.9640 N.am  209  ASN209     -0.0877
     60  N        -53.0110    0.0490  -46.3520 N.3   212  ALA212     -0.1245
     61  CA       -53.2080   -1.3800  -46.4350 C.3   212  ALA212      0.1562
     62  C        -54.1670   -1.6450  -47.5710 C.2   212  ALA212      0.2260
     63  O        -54.1300   -2.7050  -48.1810 O.2   212  ALA212     -0.2867
     64  CB       -53.7790   -1.9090  -45.1610 C.3   212  ALA212      0.0290
     65  N        -62.2140    0.6040  -44.1150 N.3   234  SER234     -0.1202
     66  CA       -63.0600    1.0070  -42.9960 C.3   234  SER234      0.2020
     67  C        -62.7330    0.2590  -41.7120 C.2   234  SER234      0.2619
     68  O        -61.9460   -0.6700  -41.7120 O.2   234  SER234     -0.2717
     69  CB       -64.5460    0.8030  -43.3400 C.3   234  SER234      0.2103
     70  OG       -65.0940   -0.3400  -42.7030 O.3   234  SER234     -0.2182
     71  N        -63.3260    0.7050  -40.6150 N.am  235  ASP235     -0.1959
     72  CA       -63.1760    0.0690  -39.3190 C.3   235  ASP235      0.1840
     73  C        -64.0500   -1.1740  -39.5160 C.2   235  ASP235      0.2622
     74  O        -65.2290   -1.0490  -39.8360 O.2   235  ASP235     -0.2715
     75  CB       -63.7800    0.9900  -38.2570 C.3   235  ASP235      0.1450
     76  CG       -63.7870    0.3820  -36.8710 C.2   235  ASP235      0.3671
     77  OD1      -63.8410   -0.8620  -36.7590 O.co2 235  ASP235     -0.2456
     78  OD2      -63.7620    1.1590  -35.8890 O.co2 235  ASP235     -0.2456
     79  N        -63.4960   -2.3690  -39.3520 N.am  236  VAL236     -0.1963
     80  CA       -64.2930   -3.5710  -39.5720 C.3   236  VAL236      0.1727
     81  C        -65.6070   -3.5310  -38.8100 C.2   236  VAL236      0.2616
     82  O        -66.6090   -4.1000  -39.2490 O.2   236  VAL236     -0.2715
     83  CB       -63.5440   -4.8600  -39.1720 C.3   236  VAL236      0.0290
     84  CG1      -63.4260   -4.9650  -37.6580 C.3   236  VAL236      0.0023
     85  CG2      -64.2810   -6.0610  -39.7290 C.3   236  VAL236      0.0023
     86  N        -65.5940   -2.8560  -37.6670 N.am  237  ARG237     -0.1977
     87  CA       -66.7740   -2.7400  -36.8260 C.3   237  ARG237      0.1597
     88  C        -67.9980   -2.2850  -37.5890 C.2   237  ARG237      0.2287
     89  O        -69.0650   -2.8890  -37.4740 O.2   237  ARG237     -0.2864
     90  CB       -66.5100   -1.7480  -35.7060 C.3   237  ARG237      0.0334
     91  CG       -65.7280   -2.3100  -34.5660 C.3   237  ARG237      0.0492
     92  CD       -66.6670   -2.9170  -33.5500 C.3   237  ARG237      0.2205
     93  NE       -65.9500   -3.4950  -32.4180 N.pl3 237  ARG237     -0.0865
     94  CZ       -64.9210   -2.9130  -31.8060 C.cat 237  ARG237      0.5346
     95  NH1      -64.4770   -1.7290  -32.2260 N.pl3 237  ARG237      0.1354
     96  NH2      -64.3450   -3.5070  -30.7670 N.pl3 237  ARG237      0.1354
     97  N        -57.0540  -11.9300  -38.3010 N.3   249  ASN249     -0.1225
     98  CA       -55.6070  -11.7390  -38.1750 C.3   249  ASN249      0.1785
     99  C        -55.1840  -10.4690  -37.4230 C.2   249  ASN249      0.2597
    100  O        -54.5710   -9.5640  -37.9990 O.2   249  ASN249     -0.2718
    101  CB       -54.9690  -11.7520  -39.5680 C.3   249  ASN249      0.1169
    102  CG       -53.4490  -11.7630  -39.5190 C.2   249  ASN249      0.2627
    103  OD1      -52.8540  -12.2840  -38.5770 O.2   249  ASN249     -0.2716
    104  ND2      -52.8120  -11.2040  -40.5540 N.am  249  ASN249     -0.0877
    105  N        -55.5180  -10.4200  -36.1310 N.am  250  LEU250     -0.1980
    106  CA       -55.1890   -9.2950  -35.2330 C.3   250  LEU250      0.1596
    107  C        -55.0110   -9.8890  -33.8240 C.2   250  LEU250      0.2287
    108  O        -55.7640   -9.5610  -32.9080 O.2   250  LEU250     -0.2864
    109  CB       -56.3340   -8.2630  -35.2220 C.3   250  LEU250      0.0297
    110  CG       -56.1090   -6.8950  -34.5630 C.3   250  LEU250      0.0022
    111  CD1      -55.1600   -6.0550  -35.4180 C.3   250  LEU250      0.0001
    112  CD2      -57.4280   -6.1770  -34.4140 C.3   250  LEU250      0.0001
    113  N        -63.2470   -8.2010  -30.6780 N.3   257  PHE257     -0.1241
    114  CA       -63.9570   -8.1430  -31.9550 C.3   257  PHE257      0.1605
    115  C        -64.8300   -9.3590  -32.1990 C.2   257  PHE257      0.2264
    116  O        -65.6200   -9.3870  -33.1390 O.2   257  PHE257     -0.2867
    117  CB       -62.9530   -8.0310  -33.0990 C.3   257  PHE257      0.0534
    118  CG       -62.2830   -6.6880  -33.2010 C.ar  257  PHE257     -0.0203
    119  CD1      -62.8870   -5.6460  -33.8980 C.ar  257  PHE257     -0.0042
    120  CD2      -61.0410   -6.4690  -32.6100 C.ar  257  PHE257     -0.0042
    121  CE1      -62.2610   -4.4050  -34.0080 C.ar  257  PHE257     -0.0003
    122  CE2      -60.4100   -5.2340  -32.7130 C.ar  257  PHE257     -0.0003
    123  CZ       -61.0220   -4.2000  -33.4150 C.ar  257  PHE257     -0.0000
@<TRIPOS>BOND
     1    63    62    2
     2    62    61    1
     3    61    60    1
     4    61    64    1
     5    35    34    2
     6    34    33    1
     7    55    54    2
     8    54    53    1
     9    33    32    1
    10    39    38    2
    11    36    37    1
    12    65    66    1
    13    40    37    1
    14    40    41    1
    15    58    57    2
    16    37    38    1
    17    69    66    1
    18    69    70    1
    19    38    44   am
    20    41    42   ar
    21    41    43   ar
    22    66    67    1
    23    57    59   am
    24    57    56    1
    25     4     3    2
    26    53    52    1
    27    53    56    1
    28    52    46   am
    29    47    46    2
    30    46    45    1
    31    44    45    1
    32     3     2    1
    33    13    14    1
    34    23    24    2
    35    23    22    1
    36    67    68    2
    37    67    71   am
    38     1     2    1
    39    45    48    1
    40     2     5    1
    41    14    15    1
    42    14    17    1
    43    15    21   am
    44    15    16    2
    45    21    22    1
    46    22    25    1
    47    71    72    1
    48   104   102   am
    49    48    49    1
    50    48    50    1
    51     5     6    1
    52    74    73    2
    53    49    51    1
    54    85    83    1
    55    17    18    1
    56    80    79    1
    57    80    83    1
    58    80    81    1
    59   101   102    1
    60   101    98    1
    61    18    19    1
    62   102   103    2
    63    73    79   am
    64    73    72    1
    65    25    26    1
    66    72    75    1
    67     8     6   ar
    68     8    10   ar
    69    82    81    2
    70    83    84    1
    71     6     7   ar
    72    81    86   am
    73    10    11   ar
    74    97    98    1
    75    26    27   ar
    76    26    28   ar
    77    75    76    1
    78    98    99    1
    79   100    99    2
    80    19    20    1
    81     7     9   ar
    82    27    29   ar
    83    28    30   ar
    84    86    87    1
    85    88    89    2
    86    88    87    1
    87    99   105   am
    88    11     9   ar
    89    11    12    1
    90    29    31   ar
    91    76    77   ar
    92    76    78   ar
    93    30    31   ar
    94    87    90    1
    95   105   106    1
    96    90    91    1
    97   111   110    1
    98   106   109    1
    99   106   107    1
   100   109   110    1
   101    91    92    1
   102   110   112    1
   103   121   119   ar
   104   121   123   ar
   105   119   118   ar
   106   107   108    2
   107    92    93    1
   108   123   122   ar
   109   118   117    1
   110   118   120   ar
   111   116   115    2
   112   117   114    1
   113   122   120   ar
   114    93    94    2
   115    95    94    1
   116   115   114    1
   117   114   113    1
   118    94    96    1
