@<TRIPOS>MOLECULE
tmp/3ay4C00.pdb
 99 93 0 0 0
SMALL
GASTEIGER

@<TRIPOS>ATOM
      1  N         23.8550   11.7480  122.1180 N.3   106  LYS106     -0.1245
      2  CA        22.4530   11.6120  122.5340 C.3   106  LYS106      0.1561
      3  C         21.9250   10.2200  122.2050 C.2   106  LYS106      0.2260
      4  O         20.9390   10.0610  121.4780 O.2   106  LYS106     -0.2867
      5  CB        21.5800   12.6920  121.8790 C.3   106  LYS106      0.0271
      6  CG        21.9420   14.1320  122.2930 C.3   106  LYS106      0.0035
      7  CD        20.9880   15.1420  121.6430 C.3   106  LYS106      0.0206
      8  CE        21.3000   16.5740  122.0770 C.3   106  LYS106      0.1093
      9  NZ        20.4650   16.9980  123.2330 N.3   106  LYS106     -0.1314
     10  N         20.2670    6.5520  122.8870 N.3   108  THR108     -0.1218
     11  CA        19.2930    5.8360  123.7050 C.3   108  THR108      0.1862
     12  C         19.2800    4.3570  123.3240 C.2   108  THR108      0.2287
     13  O         19.2350    4.0190  122.1310 O.2   108  THR108     -0.2866
     14  CB        17.8500    6.3760  123.5040 C.3   108  THR108      0.1770
     15  OG1       17.8550    7.8050  123.5530 O.3   108  THR108     -0.2211
     16  CG2       16.9160    5.8550  124.5980 C.3   108  THR108      0.0375
     17  N         16.8220    1.2610  123.6370 N.3   110  LEU110     -0.1245
     18  CA        15.4100    1.0400  123.9030 C.3   110  LEU110      0.1561
     19  C         15.0970   -0.4290  124.1170 C.2   110  LEU110      0.2260
     20  O         15.6760   -1.3030  123.4730 O.2   110  LEU110     -0.2867
     21  CB        14.5290    1.6060  122.7800 C.3   110  LEU110      0.0270
     22  CG        14.5800    3.1310  122.6280 C.3   110  LEU110      0.0019
     23  CD1       15.7200    3.5280  121.7060 C.3   110  LEU110      0.0001
     24  CD2       13.2380    3.7050  122.1280 C.3   110  LEU110      0.0001
     25  N         11.6450   -2.8320  124.0420 N.3   112  ASN112     -0.1225
     26  CA        10.2410   -2.8980  123.6940 C.3   112  ASN112      0.1785
     27  C          9.6470   -1.5230  123.4040 C.2   112  ASN112      0.2598
     28  O          8.5400   -1.2050  123.8370 O.2   112  ASN112     -0.2718
     29  CB         9.4590   -3.6460  124.7740 C.3   112  ASN112      0.1169
     30  CG         9.8960   -5.1070  124.9030 C.2   112  ASN112      0.2627
     31  OD1       10.3720   -5.7150  123.9420 O.2   112  ASN112     -0.2716
     32  ND2        9.7490   -5.6630  126.0930 N.am  112  ASN112     -0.0877
     33  N         10.3890   -0.7150  122.6510 N.am  113  GLY113     -0.1942
     34  CA         9.8880    0.5840  122.1900 C.3   113  GLY113      0.2014
     35  C         10.0050    1.7070  123.2100 C.2   113  GLY113      0.2638
     36  O          9.6350    2.8490  122.9390 O.2   113  GLY113     -0.2714
     37  N         10.5250    1.3840  124.3870 N.am  114  LYS114     -0.1977
     38  CA        10.6740    2.3740  125.4430 C.3   114  LYS114      0.1596
     39  C         12.1390    2.6270  125.7460 C.2   114  LYS114      0.2287
     40  O         12.9070    1.6920  125.9790 O.2   114  LYS114     -0.2864
     41  CB         9.9430    1.9340  126.7190 C.3   114  LYS114      0.0298
     42  CG         9.8510    3.0480  127.7770 C.3   114  LYS114      0.0038
     43  CD         9.5300    2.5170  129.1710 C.3   114  LYS114      0.0206
     44  CE         9.5150    3.6590  130.2000 C.3   114  LYS114      0.1093
     45  NZ        10.7200    4.5390  130.0880 N.3   114  LYS114     -0.1314
     46  N         19.8520    6.3930  128.5750 N.3   118  TYR118     -0.1241
     47  CA        20.2910    7.4750  127.7140 C.3   118  TYR118      0.1605
     48  C         21.6980    7.9230  128.0780 C.2   118  TYR118      0.2264
     49  O         22.0450    7.9910  129.2560 O.2   118  TYR118     -0.2867
     50  CB        19.3040    8.6470  127.8010 C.3   118  TYR118      0.0534
     51  CG        19.8860    9.9510  127.3210 C.ar  118  TYR118     -0.0201
     52  CD1       19.6850   10.3820  126.0120 C.ar  118  TYR118     -0.0009
     53  CD2       20.6760   10.7330  128.1600 C.ar  118  TYR118     -0.0009
     54  CE1       20.2380   11.5590  125.5550 C.ar  118  TYR118      0.0417
     55  CE2       21.2280   11.9290  127.7130 C.ar  118  TYR118      0.0417
     56  CZ        21.0110   12.3290  126.4080 C.ar  118  TYR118      0.1957
     57  OH        21.5640   13.5000  125.9490 O.3   118  TYR118     -0.2866
     58  N         16.6760   -1.9190  120.4170 N.3   139  PHE139     -0.1241
     59  CA        17.5150   -1.2420  119.4370 C.3   139  PHE139      0.1605
     60  C         18.1280   -0.0100  120.0660 C.2   139  PHE139      0.2264
     61  O         17.7490    0.3940  121.1640 O.2   139  PHE139     -0.2867
     62  CB        16.7330   -0.8850  118.1650 C.3   139  PHE139      0.0534
     63  CG        15.6610    0.1740  118.3630 C.ar  139  PHE139     -0.0203
     64  CD1       15.8370    1.4590  117.8670 C.ar  139  PHE139     -0.0042
     65  CD2       14.4580   -0.1370  118.9830 C.ar  139  PHE139     -0.0042
     66  CE1       14.8460    2.4250  118.0140 C.ar  139  PHE139     -0.0003
     67  CE2       13.4630    0.8240  119.1490 C.ar  139  PHE139     -0.0003
     68  CZ        13.6550    2.1030  118.6440 C.ar  139  PHE139     -0.0000
     69  N         19.7320    4.1340  119.1930 N.3   141  ARG141     -0.1231
     70  CA        19.6230    5.2620  118.2830 C.3   141  ARG141      0.1694
     71  C         20.3820    6.4470  118.8510 C.2   141  ARG141      0.2593
     72  O         20.8060    6.4280  120.0120 O.2   141  ARG141     -0.2718
     73  CB        18.1580    5.6120  118.0130 C.3   141  ARG141      0.0321
     74  CG        17.4610    6.3690  119.1370 C.3   141  ARG141      0.0489
     75  CD        15.9700    6.5000  118.8540 C.3   141  ARG141      0.2205
     76  NE        15.2610    6.9660  120.0410 N.pl3 141  ARG141     -0.0865
     77  CZ        13.9480    6.8860  120.2180 C.cat 141  ARG141      0.5346
     78  NH1       13.1680    6.3340  119.2930 N.pl3 141  ARG141      0.1354
     79  NH2       13.4130    7.3600  121.3330 N.pl3 141  ARG141      0.1354
     80  N         20.6100    7.4470  118.0070 N.am  142  GLY142     -0.1942
     81  CA        21.4450    8.5800  118.3720 C.3   142  GLY142      0.2014
     82  C         21.5510    9.5470  117.2140 C.2   142  GLY142      0.2638
     83  O         20.9110    9.3630  116.1790 O.2   142  GLY142     -0.2714
     84  N         22.3740   10.5700  117.3960 N.am  143  LEU143     -0.1977
     85  CA        22.6040   11.6000  116.3980 C.3   143  LEU143      0.1596
     86  C         24.0330   11.4500  115.8630 C.2   143  LEU143      0.2287
     87  O         24.9980   11.4380  116.6370 O.2   143  LEU143     -0.2864
     88  CB        22.4730   12.9810  117.0520 C.3   143  LEU143      0.0297
     89  CG        21.1470   13.7460  117.0070 C.3   143  LEU143      0.0022
     90  CD1       19.9150   12.8530  116.9550 C.3   143  LEU143      0.0001
     91  CD2       21.0620   14.7390  118.1580 C.3   143  LEU143      0.0001
     92  N         19.4730   11.8870  112.7330 N.3   148  ASN148     -0.1240
     93  CA        18.9460   10.9850  113.7360 C.3   148  ASN148      0.1653
     94  C         18.8610    9.5900  113.1270 C.2   148  ASN148      0.2266
     95  O         18.1750    9.3880  112.1290 O.2   148  ASN148     -0.2867
     96  CB        17.5580   11.4870  114.1380 C.3   148  ASN148      0.1155
     97  CG        16.8890   10.6420  115.2100 C.2   148  ASN148      0.2627
     98  OD1       17.1170    9.4430  115.3260 O.2   148  ASN148     -0.2716
     99  ND2       16.0150   11.2870  115.9920 N.am  148  ASN148     -0.0877
@<TRIPOS>BOND
     1    95    94    2
     2    92    93    1
     3    94    93    1
     4    93    96    1
     5    96    97    1
     6    97    98    2
     7    97    99   am
     8    86    85    1
     9    86    87    2
    10    83    82    2
    11    85    88    1
    12    85    84    1
    13    90    89    1
    14    89    88    1
    15    89    91    1
    16    82    84   am
    17    82    81    1
    18    64    66   ar
    19    64    63   ar
    20    80    81    1
    21    80    71   am
    22    73    70    1
    23    73    74    1
    24    66    68   ar
    25    62    63    1
    26    62    59    1
    27    70    71    1
    28    70    69    1
    29    63    65   ar
    30    68    67   ar
    31    71    72    2
    32    75    74    1
    33    75    76    1
    34    65    67   ar
    35    78    77    1
    36    59    60    1
    37    59    58    1
    38    76    77    2
    39    60    61    2
    40    77    79    1
    41     4     3    2
    42     7     8    1
    43     7     6    1
    44    23    22    1
    45     5     6    1
    46     5     2    1
    47     8     9    1
    48     1     2    1
    49    24    22    1
    50    13    12    2
    51    34    33    1
    52    34    35    1
    53     3     2    1
    54    22    21    1
    55    33    27   am
    56    21    18    1
    57    10    11    1
    58    36    35    2
    59    35    37   am
    60    12    11    1
    61    27    26    1
    62    27    28    2
    63    20    19    2
    64    14    15    1
    65    14    11    1
    66    14    16    1
    67    17    18    1
    68    26    25    1
    69    26    29    1
    70    18    19    1
    71    31    30    2
    72    37    38    1
    73    29    30    1
    74    30    32   am
    75    38    39    1
    76    38    41    1
    77    54    52   ar
    78    54    56   ar
    79    39    40    2
    80    57    56    1
    81    52    51   ar
    82    56    55   ar
    83    41    42    1
    84    51    50    1
    85    51    53   ar
    86    55    53   ar
    87    47    50    1
    88    47    48    1
    89    47    46    1
    90    42    43    1
    91    48    49    2
    92    43    44    1
    93    45    44    1
