@<TRIPOS>MOLECULE
tmp/3ay6D00.pdb
 122 117 0 0 0
SMALL
GASTEIGER

@<TRIPOS>ATOM
      1  N         40.9420  -20.3770  -29.6180 N.3   102  GLU102     -0.1245
      2  CA        41.6300  -19.1550  -30.0060 C.3   102  GLU102      0.1567
      3  C         42.9970  -19.5150  -30.5900 C.2   102  GLU102      0.2260
      4  O         43.5170  -20.5980  -30.3170 O.2   102  GLU102     -0.2867
      5  CB        41.8490  -18.2660  -28.7800 C.3   102  GLU102      0.0388
      6  CG        42.9830  -18.7650  -27.8680 C.3   102  GLU102      0.1160
      7  CD        43.0390  -18.0540  -26.5250 C.2   102  GLU102      0.3649
      8  OE1       44.1360  -17.9880  -25.9330 O.co2 102  GLU102     -0.2457
      9  OE2       41.9900  -17.5550  -26.0640 O.co2 102  GLU102     -0.2457
     10  N         34.2590  -13.5760  -22.0970 N.3   151  SER151     -0.1202
     11  CA        35.6580  -13.2210  -21.8210 C.3   151  SER151      0.2020
     12  C         35.6890  -11.7260  -21.5210 C.2   151  SER151      0.2619
     13  O         34.7270  -10.9920  -21.8280 O.2   151  SER151     -0.2717
     14  CB        36.5290  -13.4660  -23.0630 C.3   151  SER151      0.2103
     15  OG        37.8630  -12.9720  -22.9030 O.3   151  SER151     -0.2182
     16  N         36.8100  -11.2660  -20.9820 N.am  152  VAL152     -0.1965
     17  CA        37.0900   -9.8570  -20.9630 C.3   152  VAL152      0.1727
     18  C         37.0900   -9.2770  -22.3770 C.2   152  VAL152      0.2616
     19  O         36.9060   -8.0760  -22.5360 O.2   152  VAL152     -0.2715
     20  CB        38.4220   -9.5210  -20.2430 C.3   152  VAL152      0.0290
     21  CG1       38.2850   -9.7590  -18.7380 C.3   152  VAL152      0.0023
     22  CG2       39.6030  -10.2810  -20.8540 C.3   152  VAL152      0.0023
     23  N         37.2500  -10.1350  -23.3930 N.am  153  HIS153     -0.1973
     24  CA        37.3540   -9.6840  -24.7850 C.3   153  HIS153      0.1656
     25  C         36.0130   -9.5080  -25.4920 C.2   153  HIS153      0.2291
     26  O         35.9510   -9.3470  -26.7270 O.2   153  HIS153     -0.2864
     27  CB        38.3470  -10.5370  -25.5920 C.3   153  HIS153      0.0771
     28  CG        39.7280  -10.5200  -25.0150 C.ar  153  HIS153      0.0820
     29  ND1       40.5430   -9.4090  -25.0720 N.ar  153  HIS153     -0.2267
     30  CD2       40.4160  -11.4550  -24.3200 C.ar  153  HIS153      0.1154
     31  CE1       41.6790   -9.6610  -24.4460 C.ar  153  HIS153      0.1986
     32  NE2       41.6240  -10.8940  -23.9710 N.ar  153  HIS153     -0.2212
     33  N         41.3950   -7.1750  -28.9090 N.3   158  TRP158     -0.1241
     34  CA        42.5180   -8.0910  -28.8160 C.3   158  TRP158      0.1605
     35  C         43.2170   -8.2860  -30.1570 C.2   158  TRP158      0.2264
     36  O         42.9040   -9.2140  -30.8960 O.2   158  TRP158     -0.2867
     37  CB        42.0730   -9.4170  -28.1800 C.3   158  TRP158      0.0550
     38  CG        43.1910  -10.1540  -27.4720 C.ar  158  TRP158      0.0003
     39  CD1       44.4240   -9.6490  -27.1190 C.ar  158  TRP158      0.0946
     40  CD2       43.1680  -11.5110  -27.0120 C.ar  158  TRP158      0.0152
     41  NE1       45.1690  -10.6140  -26.4750 N.ar  158  TRP158     -0.2442
     42  CE2       44.4310  -11.7700  -26.4000 C.ar  158  TRP158      0.0810
     43  CE3       42.2180  -12.5430  -27.0710 C.ar  158  TRP158      0.0012
     44  CZ2       44.7620  -13.0190  -25.8490 C.ar  158  TRP158      0.0191
     45  CZ3       42.5460  -13.7960  -26.5130 C.ar  158  TRP158      0.0001
     46  CH2       43.8080  -14.0180  -25.9100 C.ar  158  TRP158      0.0015
     47  N         38.3530  -14.1060  -32.2160 N.3   164  TYR164     -0.1241
     48  CA        37.9660  -14.3730  -30.8430 C.3   164  TYR164      0.1605
     49  C         37.2240  -13.1530  -30.2370 C.2   164  TYR164      0.2264
     50  O         36.1280  -13.2900  -29.6820 O.2   164  TYR164     -0.2867
     51  CB        39.2160  -14.7360  -30.0390 C.3   164  TYR164      0.0534
     52  CG        38.9610  -15.1590  -28.6130 C.ar  164  TYR164     -0.0201
     53  CD1       38.7440  -16.4960  -28.2930 C.ar  164  TYR164     -0.0009
     54  CD2       38.9390  -14.2120  -27.5780 C.ar  164  TYR164     -0.0009
     55  CE1       38.5080  -16.8900  -26.9750 C.ar  164  TYR164      0.0417
     56  CE2       38.7060  -14.5890  -26.2570 C.ar  164  TYR164      0.0417
     57  CZ        38.4860  -15.9340  -25.9640 C.ar  164  TYR164      0.1957
     58  OH        38.2810  -16.3140  -24.6590 O.3   164  TYR164     -0.2866
     59  N         35.7890  -14.1060  -17.8670 N.3   194  PRO194     -0.2102
     60  CA        37.0260  -14.3040  -17.1120 C.3   194  PRO194      0.1504
     61  C         38.1510  -13.5080  -17.6950 C.2   194  PRO194      0.2576
     62  O         38.1480  -13.2330  -18.8930 O.2   194  PRO194     -0.2718
     63  CB        37.3320  -15.7940  -17.3090 C.3   194  PRO194      0.0282
     64  CG        36.0130  -16.4100  -17.7150 C.3   194  PRO194      0.0208
     65  CD        35.3610  -15.3430  -18.5490 C.3   194  PRO194      0.0893
     66  N         39.0810  -13.1110  -16.8380 N.am  195  GLY195     -0.1943
     67  CA        40.3780  -12.5910  -17.2610 C.3   195  GLY195      0.2014
     68  C         41.3020  -13.7690  -17.5020 C.2   195  GLY195      0.2638
     69  O         40.8280  -14.8510  -17.7850 O.2   195  GLY195     -0.2714
     70  N         42.6180  -13.5580  -17.3970 N.am  196  ALA196     -0.1977
     71  CA        43.5850  -14.6390  -17.5600 C.3   196  ALA196      0.1597
     72  C         43.4330  -15.7000  -16.4590 C.2   196  ALA196      0.2287
     73  O         43.5810  -15.4050  -15.2730 O.2   196  ALA196     -0.2864
     74  CB        45.0070  -14.0830  -17.5850 C.3   196  ALA196      0.0319
     75  N         44.1210  -23.5510  -22.2800 N.3   201  ILE201     -0.1231
     76  CA        44.1470  -22.5480  -23.3520 C.3   201  ILE201      0.1692
     77  C         45.3710  -21.6380  -23.2240 C.2   201  ILE201      0.2592
     78  O         45.8410  -21.0830  -24.2160 O.2   201  ILE201     -0.2718
     79  CB        42.8180  -21.7370  -23.4600 C.3   201  ILE201      0.0266
     80  CG1       42.5830  -21.2760  -24.9090 C.3   201  ILE201      0.0019
     81  CG2       42.7700  -20.5580  -22.4610 C.3   201  ILE201      0.0020
     82  CD1       41.1050  -20.9630  -25.2410 C.3   201  ILE201      0.0001
     83  N         45.8820  -21.5150  -22.0000 N.am  202  ASN202     -0.1974
     84  CA        47.0280  -20.6620  -21.6970 C.3   202  ASN202      0.1688
     85  C         48.3200  -21.4030  -21.3280 C.2   202  ASN202      0.2292
     86  O         49.3030  -20.7630  -20.9550 O.2   202  ASN202     -0.2864
     87  CB        46.6730  -19.7150  -20.5400 C.3   202  ASN202      0.1181
     88  CG        45.7140  -18.6080  -20.9420 C.2   202  ASN202      0.2629
     89  OD1       45.7450  -18.1090  -22.0760 O.2   202  ASN202     -0.2716
     90  ND2       44.8640  -18.1960  -19.9960 N.am  202  ASN202     -0.0877
     91  N         51.6170  -20.5480  -23.2790 N.3   205  LYS205     -0.1245
     92  CA        51.9210  -19.1770  -22.9010 C.3   205  LYS205      0.1561
     93  C         52.5590  -19.0890  -21.5100 C.2   205  LYS205      0.2260
     94  O         53.5490  -18.3750  -21.3070 O.2   205  LYS205     -0.2867
     95  CB        50.6210  -18.3590  -22.9400 C.3   205  LYS205      0.0271
     96  CG        50.7880  -16.8480  -23.0270 C.3   205  LYS205      0.0035
     97  CD        49.5100  -16.1070  -22.5910 C.3   205  LYS205      0.0206
     98  CE        48.2940  -16.4320  -23.4500 C.3   205  LYS205      0.1093
     99  NZ        47.0260  -15.8170  -22.8970 N.3   205  LYS205     -0.1314
    100  N         51.7810  -11.3470  -18.6400 N.3   215  VAL215     -0.1245
    101  CA        50.3510  -11.4930  -18.4130 C.3   215  VAL215      0.1561
    102  C         49.9680  -11.0620  -16.9930 C.2   215  VAL215      0.2260
    103  O         49.0040  -10.3170  -16.8160 O.2   215  VAL215     -0.2867
    104  CB        49.8810  -12.9320  -18.7000 C.3   215  VAL215      0.0252
    105  CG1       48.3860  -13.1100  -18.3450 C.3   215  VAL215      0.0019
    106  CG2       50.1380  -13.2820  -20.1670 C.3   215  VAL215      0.0019
    107  N         49.5570   -7.4840  -16.3500 N.3   218  MET218     -0.1245
    108  CA        48.3210   -6.9270  -16.8980 C.3   218  MET218      0.1570
    109  C         47.1020   -7.2040  -16.0190 C.2   218  MET218      0.2261
    110  O         45.9800   -6.8090  -16.3480 O.2   218  MET218     -0.2867
    111  CB        48.0960   -7.4520  -18.3150 C.3   218  MET218      0.0387
    112  CG        49.1770   -6.9760  -19.2830 C.3   218  MET218      0.0595
    113  SD        49.2160   -7.9470  -20.7860 S.3   218  MET218     -0.1393
    114  CE        47.7780   -7.3440  -21.6780 C.3   218  MET218      0.0692
    115  N         41.0430   -6.6560  -14.9240 N.3   256  MET256     -0.1245
    116  CA        41.5860   -6.4920  -16.2680 C.3   256  MET256      0.1570
    117  C         40.8090   -5.4620  -17.1200 C.2   256  MET256      0.2261
    118  O         41.4070   -4.6630  -17.8550 O.2   256  MET256     -0.2867
    119  CB        41.6500   -7.8470  -16.9750 C.3   256  MET256      0.0387
    120  CG        42.8490   -7.9840  -17.8550 C.3   256  MET256      0.0595
    121  SD        43.0430   -9.6460  -18.5020 S.3   256  MET256     -0.1393
    122  CE        44.8270   -9.8550  -18.3420 C.3   256  MET256      0.0692
@<TRIPOS>BOND
     1    47    48    1
     2    36    35    2
     3    48    49    1
     4    48    51    1
     5     3     4    2
     6     3     2    1
     7    49    50    2
     8    35    34    1
     9    51    52    1
    10     2     1    1
    11     2     5    1
    12    33    34    1
    13    34    37    1
    14     5     6    1
    15    52    53   ar
    16    52    54   ar
    17    53    55   ar
    18    37    38    1
    19     6     7    1
    20    54    56   ar
    21    38    39   ar
    22    38    40   ar
    23    39    41   ar
    24    43    40   ar
    25    43    45   ar
    26    40    42   ar
    27    55    57   ar
    28    26    25    2
    29     7     9   ar
    30     7     8   ar
    31    45    46   ar
    32    41    42   ar
    33    42    44   ar
    34    56    57   ar
    35    57    58    1
    36    46    44   ar
    37    27    28    1
    38    27    24    1
    39    25    24    1
    40    82    80    1
    41    29    28   ar
    42    29    31   ar
    43    28    30   ar
    44    80    79    1
    45    24    23    1
    46    31    32   ar
    47    30    32   ar
    48    78    77    2
    49    79    76    1
    50    79    81    1
    51    98    99    1
    52    98    97    1
    53    23    18   am
    54    76    77    1
    55    76    75    1
    56    91    92    1
    57    77    83   am
    58    14    15    1
    59    14    11    1
    60    96    95    1
    61    96    97    1
    62    95    92    1
    63    92    93    1
    64    19    18    2
    65    18    17    1
    66    10    11    1
    67    89    88    2
    68    83    84    1
    69    13    12    2
    70    11    12    1
    71    84    85    1
    72    84    87    1
    73   114   113    1
    74    12    16   am
    75    93    94    2
    76    85    86    2
    77    16    17    1
    78    17    20    1
    79    88    87    1
    80    88    90   am
    81    22    20    1
    82   113   112    1
    83    20    21    1
    84   106   104    1
    85   112   111    1
    86    62    61    2
    87   104   101    1
    88   104   105    1
    89   100   101    1
    90    65    59    1
    91    65    64    1
    92   121   122    1
    93   121   120    1
    94   101   102    1
    95   111   108    1
    96    59    60    1
    97   118   117    2
    98   120   119    1
    99    69    68    2
   100    64    63    1
   101    61    60    1
   102    61    66   am
   103    74    71    1
   104    71    70    1
   105    71    72    1
   106    68    70   am
   107    68    67    1
   108    63    60    1
   109    67    66    1
   110   117   116    1
   111   102   103    2
   112   119   116    1
   113   108   107    1
   114   108   109    1
   115    72    73    2
   116   110   109    2
   117   116   115    1
