@<TRIPOS>MOLECULE
tmp/3aycB00.pdb
 106 99 0 0 0
SMALL
GASTEIGER

@<TRIPOS>ATOM
      1  N         11.9400   17.9350   10.7430 N.3    29  ARG29      -0.1245
      2  CA        11.8270   18.9380    9.6960 C.3    29  ARG29       0.1563
      3  C         11.1530   18.4090    8.4440 C.2    29  ARG29       0.2260
      4  O         11.0490   17.1990    8.2310 O.2    29  ARG29      -0.2867
      5  CB        13.2180   19.4530    9.3230 C.3    29  ARG29       0.0307
      6  CG        14.0990   18.3940    8.6630 C.3    29  ARG29       0.0489
      7  CD        15.5160   18.9020    8.4470 C.3    29  ARG29       0.2205
      8  NE        15.5940   19.9740    7.4580 N.pl3  29  ARG29      -0.0865
      9  CZ        15.4680   19.7970    6.1470 C.cat  29  ARG29       0.5346
     10  NH1       15.2540   18.5840    5.6530 N.pl3  29  ARG29       0.1354
     11  NH2       15.5700   20.8330    5.3260 N.pl3  29  ARG29       0.1354
     12  N         12.3170   28.0540   -0.6810 N.3    43  HIS43      -0.1241
     13  CA        12.5520   27.0120    0.3100 C.3    43  HIS43       0.1621
     14  C         11.4640   27.1890    1.3740 C.2    43  HIS43       0.2264
     15  O         11.3780   28.2440    1.9890 O.2    43  HIS43      -0.2867
     16  CB        13.9540   27.2450    0.9040 C.3    43  HIS43       0.0745
     17  CG        14.3210   26.3330    2.0350 C.ar   43  HIS43       0.0817
     18  ND1       14.5300   24.9820    1.8700 N.ar   43  HIS43      -0.2268
     19  CD2       14.5820   26.5960    3.3370 C.ar   43  HIS43       0.1154
     20  CE1       14.9070   24.4520    3.0200 C.ar   43  HIS43       0.1986
     21  NE2       14.9480   25.4110    3.9270 N.ar   43  HIS43      -0.2212
     22  N         10.2830   25.5320    4.7710 N.3    45  ASN45      -0.1240
     23  CA        10.8710   24.6450    5.7650 C.3    45  ASN45       0.1653
     24  C         10.2780   24.5820    7.1770 C.2    45  ASN45       0.2266
     25  O         10.7120   25.3090    8.0750 O.2    45  ASN45      -0.2867
     26  CB        12.3580   25.0280    5.8360 C.3    45  ASN45       0.1155
     27  CG        13.1700   24.1680    6.7820 C.2    45  ASN45       0.2627
     28  OD1       14.2020   24.6170    7.2820 O.2    45  ASN45      -0.2716
     29  ND2       12.7390   22.9350    7.0130 N.am   45  ASN45      -0.0877
     30  N          9.9820   23.5630   10.7840 N.3    47  ARG47      -0.1245
     31  CA        10.9300   23.0100   11.7490 C.3    47  ARG47       0.1563
     32  C         10.1430   22.7000   13.0200 C.2    47  ARG47       0.2260
     33  O          9.5220   23.5870   13.5970 O.2    47  ARG47      -0.2867
     34  CB        12.0340   24.0250   12.0280 C.3    47  ARG47       0.0307
     35  CG        12.7890   24.4200   10.7620 C.3    47  ARG47       0.0489
     36  CD        13.9350   25.3630   11.0680 C.3    47  ARG47       0.2205
     37  NE        14.6240   25.7700    9.8460 N.pl3  47  ARG47      -0.0865
     38  CZ        15.6110   26.6560    9.8070 C.cat  47  ARG47       0.5346
     39  NH1       16.0320   27.2310   10.9280 N.pl3  47  ARG47       0.1354
     40  NH2       16.1670   26.9760    8.6440 N.pl3  47  ARG47       0.1354
     41  N         12.9430   24.0520   17.1820 N.3    50  GLU50      -0.1231
     42  CA        14.0470   24.9910   17.1350 C.3    50  GLU50       0.1699
     43  C         13.9790   25.6920   18.4870 C.2    50  GLU50       0.2592
     44  O         13.2400   26.6590   18.6550 O.2    50  GLU50      -0.2718
     45  CB        13.8510   26.0030   16.0030 C.3    50  GLU50       0.0402
     46  CG        15.0920   26.8400   15.7070 C.3    50  GLU50       0.1161
     47  CD        14.8610   27.8730   14.6150 C.2    50  GLU50       0.3649
     48  OE1       14.1770   28.8840   14.8790 O.co2  50  GLU50      -0.2457
     49  OE2       15.3580   27.6690   13.4890 O.co2  50  GLU50      -0.2457
     50  N         14.7510   25.1920   19.4490 N.am   51  ASN51      -0.1974
     51  CA        14.7670   25.7510   20.7480 C.3    51  ASN51       0.1688
     52  C         13.3490   25.6890   21.4000 C.2    51  ASN51       0.2292
     53  O         12.9740   26.5540   21.9110 O.2    51  ASN51      -0.2864
     54  CB        15.2140   27.1940   20.7910 C.3    51  ASN51       0.1181
     55  CG        16.6840   27.3980   20.3050 C.2    51  ASN51       0.2629
     56  OD1       16.9610   28.2780   19.5470 O.2    51  ASN51      -0.2716
     57  ND2       17.4480   26.5530   20.6040 N.am   51  ASN51      -0.0877
     58  N         10.1460   28.2540    8.1750 N.3    57  VAL57      -0.1245
     59  CA        11.1210   29.1730    7.6100 C.3    57  VAL57       0.1561
     60  C         11.0610   29.1330    6.0940 C.2    57  VAL57       0.2260
     61  O         11.0320   28.0580    5.5000 O.2    57  VAL57      -0.2867
     62  CB        12.5600   28.8000    8.0550 C.3    57  VAL57       0.0252
     63  CG1       13.5770   29.7010    7.3580 C.3    57  VAL57       0.0019
     64  CG2       12.6850   28.9420    9.5670 C.3    57  VAL57       0.0019
     65  N         12.8350   30.9200    2.5230 N.3    59  ASN59      -0.1240
     66  CA        13.9940   31.6880    2.1080 C.3    59  ASN59       0.1653
     67  C         14.3590   31.3390    0.6730 C.2    59  ASN59       0.2266
     68  O         13.7240   30.4890    0.0460 O.2    59  ASN59      -0.2867
     69  CB        15.1700   31.3720    3.0430 C.3    59  ASN59       0.1155
     70  CG        16.2230   32.4650    3.0650 C.2    59  ASN59       0.2627
     71  OD1       16.2390   33.3630    2.2210 O.2    59  ASN59      -0.2716
     72  ND2       17.1280   32.3800    4.0390 N.am   59  ASN59      -0.0877
     73  N         22.2170   31.7860    1.5290 N.3    66  TRP66      -0.1241
     74  CA        20.8030   31.9290    1.8760 C.3    66  TRP66       0.1605
     75  C         20.5530   33.4060    2.1490 C.2    66  TRP66       0.2264
     76  O         21.4070   34.0940    2.7120 O.2    66  TRP66      -0.2867
     77  CB        20.4460   31.1130    3.1230 C.3    66  TRP66       0.0550
     78  CG        20.3110   29.6490    2.8600 C.ar   66  TRP66       0.0003
     79  CD1       21.1960   28.6670    3.2040 C.ar   66  TRP66       0.0946
     80  CD2       19.2310   28.9970    2.1770 C.ar   66  TRP66       0.0152
     81  NE1       20.7330   27.4440    2.7780 N.ar   66  TRP66      -0.2442
     82  CE2       19.5290   27.6180    2.1450 C.ar   66  TRP66       0.0810
     83  CE3       18.0410   29.4480    1.5900 C.ar   66  TRP66       0.0012
     84  CZ2       18.6800   26.6810    1.5480 C.ar   66  TRP66       0.0191
     85  CZ3       17.1950   28.5160    0.9970 C.ar   66  TRP66       0.0001
     86  CH2       17.5200   27.1470    0.9800 C.ar   66  TRP66       0.0015
     87  N         15.5320   35.3980    5.8300 N.3    69  GLU69      -0.1245
     88  CA        14.4440   34.4630    6.0950 C.3    69  GLU69       0.1567
     89  C         13.1280   35.1630    6.4020 C.2    69  GLU69       0.2260
     90  O         13.1010   36.2490    6.9820 O.2    69  GLU69      -0.2867
     91  CB        14.7630   33.5590    7.2860 C.3    69  GLU69       0.0388
     92  CG        15.9750   32.6780    7.1300 C.3    69  GLU69       0.1160
     93  CD        16.1780   31.7880    8.3390 C.2    69  GLU69       0.3649
     94  OE1       15.8330   32.2240    9.4580 O.co2  69  GLU69      -0.2457
     95  OE2       16.6880   30.6610    8.1740 O.co2  69  GLU69      -0.2457
     96  N          9.8190   34.2110    8.4060 N.3    71  ARG71      -0.1245
     97  CA         9.3110   33.2170    9.3460 C.3    71  ARG71       0.1563
     98  C          7.8310   33.3300    9.6720 C.2    71  ARG71       0.2260
     99  O          7.2870   34.4260    9.7900 O.2    71  ARG71      -0.2867
    100  CB        10.1310   33.2750   10.6380 C.3    71  ARG71       0.0307
    101  CG        11.5960   32.9390   10.4170 C.3    71  ARG71       0.0489
    102  CD        12.3690   32.8810   11.7240 C.3    71  ARG71       0.2205
    103  NE        13.6690   32.2510   11.5180 N.pl3  71  ARG71      -0.0865
    104  CZ        14.1640   31.2950   12.2940 C.cat  71  ARG71       0.5346
    105  NH1       13.4700   30.8580   13.3390 N.pl3  71  ARG71       0.1354
    106  NH2       15.3430   30.7590   12.0120 N.pl3  71  ARG71       0.1354
@<TRIPOS>BOND
     1    12    13    1
     2    68    67    2
     3    13    16    1
     4    13    14    1
     5    67    66    1
     6    16    17    1
     7    86    85   ar
     8    86    84   ar
     9    85    83   ar
    10    14    15    2
    11    73    74    1
    12    84    82   ar
    13    83    80   ar
    14    18    17   ar
    15    18    20   ar
    16    74    75    1
    17    74    77    1
    18    17    19   ar
    19    66    65    1
    20    66    69    1
    21    82    80   ar
    22    82    81   ar
    23    75    76    2
    24    80    78   ar
    25    71    70    2
    26    81    79   ar
    27    78    77    1
    28    78    79   ar
    29    20    21   ar
    30    69    70    1
    31    70    72   am
    32    19    21   ar
    33    22    23    1
    34    11     9    1
    35    61    60    2
    36    10     9    1
    37    23    26    1
    38    23    24    1
    39    87    88    1
    40    26    27    1
    41    60    59    1
    42    88    89    1
    43    88    91    1
    44     9     8    2
    45    89    90    2
    46    27    29   am
    47    27    28    2
    48    92    91    1
    49    92    93    1
    50    24    25    2
    51    63    62    1
    52     8     7    1
    53    59    62    1
    54    59    58    1
    55    62    64    1
    56    95    93   ar
    57     4     3    2
    58    93    94   ar
    59    96    97    1
    60     3     2    1
    61     7     6    1
    62    40    38    1
    63     6     5    1
    64     5     2    1
    65    97    98    1
    66    97   100    1
    67    98    99    2
    68     2     1    1
    69    38    37    2
    70    38    39    1
    71    37    36    1
    72   101   100    1
    73   101   102    1
    74    35    36    1
    75    35    34    1
    76    30    31    1
    77   103   102    1
    78   103   104    2
    79    31    34    1
    80    31    32    1
    81   106   104    1
    82   104   105    1
    83    32    33    2
    84    49    47   ar
    85    47    48   ar
    86    47    46    1
    87    46    45    1
    88    45    42    1
    89    42    41    1
    90    42    43    1
    91    43    44    2
    92    43    50   am
    93    50    51    1
    94    56    55    2
    95    55    57   am
    96    55    54    1
    97    51    54    1
    98    51    52    1
    99    52    53    2
