@<TRIPOS>MOLECULE
tmp/3aydA00.pdb
 98 91 0 0 0
SMALL
GASTEIGER

@<TRIPOS>ATOM
      1  N        -34.2340    9.4700   17.5420 N.3    29  ARG29      -0.1245
      2  CA       -33.0650    9.8620   16.7660 C.3    29  ARG29       0.1563
      3  C        -32.7380    8.9170   15.6220 C.2    29  ARG29       0.2260
      4  O        -33.1880    7.7720   15.5850 O.2    29  ARG29      -0.2867
      5  CB       -31.8380    9.9370   17.6750 C.3    29  ARG29       0.0307
      6  CG       -31.3780    8.5650   18.1900 C.3    29  ARG29       0.0489
      7  CD       -30.2960    8.6750   19.2650 C.3    29  ARG29       0.2205
      8  NE       -28.9880    9.1020   18.7620 N.pl3  29  ARG29      -0.0865
      9  CZ       -28.1480    8.3290   18.0760 C.cat  29  ARG29       0.5346
     10  NH1      -28.4660    7.0710   17.7940 N.pl3  29  ARG29       0.1354
     11  NH2      -26.9730    8.8110   17.6850 N.pl3  29  ARG29       0.1354
     12  N        -20.9230   12.9300   10.8350 N.3    43  HIS43      -0.1241
     13  CA       -22.0010   12.4860   11.7140 C.3    43  HIS43       0.1621
     14  C        -23.2620   13.2650   11.3270 C.2    43  HIS43       0.2264
     15  O        -23.3020   14.4830   11.4740 O.2    43  HIS43      -0.2867
     16  CB       -21.6070   12.8030   13.1680 C.3    43  HIS43       0.0745
     17  CG       -22.6290   12.4070   14.1920 C.ar   43  HIS43       0.0817
     18  ND1      -22.8940   11.0940   14.5160 N.ar   43  HIS43      -0.2268
     19  CD2      -23.4060   13.1590   15.0080 C.ar   43  HIS43       0.1154
     20  CE1      -23.7860   11.0530   15.4900 C.ar   43  HIS43       0.1986
     21  NE2      -24.1140   12.2930   15.8080 N.ar   43  HIS43      -0.2212
     22  N        -27.0190   13.5550   12.3020 N.3    45  ASN45      -0.1240
     23  CA       -27.8700   13.1740   13.4280 C.3    45  ASN45       0.1653
     24  C        -29.2120   13.8930   13.6230 C.2    45  ASN45       0.2266
     25  O        -29.2890   14.9090   14.3230 O.2    45  ASN45      -0.2867
     26  CB       -27.0080   13.3190   14.6920 C.3    45  ASN45       0.1155
     27  CG       -27.7450   12.9920   15.9750 C.2    45  ASN45       0.2627
     28  OD1      -27.3460   13.4520   17.0470 O.2    45  ASN45      -0.2716
     29  ND2      -28.7990   12.1880   15.8860 N.am   45  ASN45      -0.0877
     30  N        -32.3970   14.7640   15.3440 N.3    47  ARG47      -0.1245
     31  CA       -32.9250   14.6080   16.7030 C.3    47  ARG47       0.1563
     32  C        -34.3940   15.0340   16.6960 C.2    47  ARG47       0.2260
     33  O        -34.7090   16.2110   16.5280 O.2    47  ARG47      -0.2867
     34  CB       -32.1010   15.4610   17.6770 C.3    47  ARG47       0.0307
     35  CG       -30.6110   15.1210   17.6350 C.3    47  ARG47       0.0489
     36  CD       -29.7590   15.9750   18.5660 C.3    47  ARG47       0.2205
     37  NE       -28.3480   15.6030   18.4550 N.pl3  47  ARG47      -0.0865
     38  CZ       -27.3600   16.1680   19.1400 C.cat  47  ARG47       0.5346
     39  NH1      -27.6130   17.1450   20.0030 N.pl3  47  ARG47       0.1354
     40  NH2      -26.1140   15.7510   18.9640 N.pl3  47  ARG47       0.1354
     41  N        -35.5090   17.2230   20.8980 N.3    50  GLU50      -0.1245
     42  CA       -34.4480   17.7350   21.7530 C.3    50  GLU50       0.1567
     43  C        -34.9150   19.0750   22.3030 C.2    50  GLU50       0.2260
     44  O        -35.0020   20.0490   21.5610 O.2    50  GLU50      -0.2867
     45  CB       -33.1460   17.9450   20.9630 C.3    50  GLU50       0.0388
     46  CG       -31.9920   18.4610   21.8320 C.3    50  GLU50       0.1160
     47  CD       -30.8380   19.0500   21.0340 C.2    50  GLU50       0.3649
     48  OE1      -31.0350   20.0840   20.3590 O.co2  50  GLU50      -0.2457
     49  OE2      -29.7270   18.4780   21.0820 O.co2  50  GLU50      -0.2457
     50  N        -28.3500   17.6740   13.6080 N.3    57  VAL57      -0.1245
     51  CA       -26.9900   18.0150   14.0040 C.3    57  VAL57       0.1561
     52  C        -25.9780   17.2470   13.1540 C.2    57  VAL57       0.2260
     53  O        -26.1140   16.0410   12.9600 O.2    57  VAL57      -0.2867
     54  CB       -26.7620   17.6690   15.4950 C.3    57  VAL57       0.0252
     55  CG1      -25.3200   17.9650   15.9030 C.3    57  VAL57       0.0019
     56  CG2      -27.7310   18.4510   16.3500 C.3    57  VAL57       0.0019
     57  N        -21.6690   16.8080   12.5440 N.3    59  ASN59      -0.1240
     58  CA       -20.3940   17.1050   13.1680 C.3    59  ASN59       0.1653
     59  C        -19.3120   16.0950   12.8140 C.2    59  ASN59       0.2266
     60  O        -19.5530   15.0890   12.1340 O.2    59  ASN59      -0.2867
     61  CB       -20.5690   17.1400   14.6910 C.3    59  ASN59       0.1155
     62  CG       -19.5680   18.0480   15.3790 C.2    59  ASN59       0.2627
     63  OD1      -18.6050   18.5160   14.7680 O.2    59  ASN59      -0.2716
     64  ND2      -19.7890   18.2940   16.6690 N.am   59  ASN59      -0.0877
     65  N        -15.5450   15.8630   19.7550 N.3    66  TRP66      -0.1241
     66  CA       -16.4220   16.4030   18.7210 C.3    66  TRP66       0.1605
     67  C        -16.0260   17.8450   18.4420 C.2    66  TRP66       0.2264
     68  O        -15.5790   18.5500   19.3450 O.2    66  TRP66      -0.2867
     69  CB       -17.8860   16.3740   19.1660 C.3    66  TRP66       0.0550
     70  CG       -18.4940   15.0120   19.1730 C.ar   66  TRP66       0.0003
     71  CD1      -18.7570   14.2340   20.2650 C.ar   66  TRP66       0.0946
     72  CD2      -18.8990   14.2530   18.0280 C.ar   66  TRP66       0.0152
     73  NE1      -19.3020   13.0330   19.8690 N.ar   66  TRP66      -0.2442
     74  CE2      -19.4010   13.0190   18.5010 C.ar   66  TRP66       0.0810
     75  CE3      -18.8850   14.4950   16.6460 C.ar   66  TRP66       0.0012
     76  CZ2      -19.8870   12.0300   17.6430 C.ar   66  TRP66       0.0191
     77  CZ3      -19.3690   13.5070   15.7900 C.ar   66  TRP66       0.0001
     78  CH2      -19.8630   12.2920   16.2940 C.ar   66  TRP66       0.0015
     79  N        -20.4490   21.9320   16.0150 N.3    69  GLU69      -0.1245
     80  CA       -21.6160   21.3950   15.3210 C.3    69  GLU69       0.1567
     81  C        -22.1780   22.3340   14.2600 C.2    69  GLU69       0.2260
     82  O        -22.0010   23.5490   14.3270 O.2    69  GLU69      -0.2867
     83  CB       -22.7560   21.0930   16.3040 C.3    69  GLU69       0.0388
     84  CG       -22.4460   20.1040   17.4120 C.3    69  GLU69       0.1160
     85  CD       -23.6560   19.8410   18.3020 C.2    69  GLU69       0.3649
     86  OE1      -24.4520   20.7810   18.5210 O.co2  69  GLU69      -0.2457
     87  OE2      -23.8040   18.7010   18.7930 O.co2  69  GLU69      -0.2457
     88  N        -25.8800   22.9190   12.6270 N.3    71  ARG71      -0.1245
     89  CA       -27.2870   22.5840   12.8530 C.3    71  ARG71       0.1563
     90  C        -28.2590   23.2320   11.8710 C.2    71  ARG71       0.2260
     91  O        -27.9480   24.2400   11.2460 O.2    71  ARG71      -0.2867
     92  CB       -27.7160   23.0270   14.2570 C.3    71  ARG71       0.0307
     93  CG       -26.9360   22.4290   15.4030 C.3    71  ARG71       0.0489
     94  CD       -27.5370   22.8540   16.7460 C.3    71  ARG71       0.2205
     95  NE       -27.0220   22.0300   17.8340 N.pl3  71  ARG71      -0.0865
     96  CZ       -27.7790   21.4730   18.7730 C.cat  71  ARG71       0.5346
     97  NH1      -29.0940   21.6550   18.7660 N.pl3  71  ARG71       0.1354
     98  NH2      -27.2220   20.7110   19.7010 N.pl3  71  ARG71       0.1354
@<TRIPOS>BOND
     1    12    13    1
     2    91    90    2
     3    14    15    2
     4    14    13    1
     5    13    16    1
     6    90    89    1
     7    60    59    2
     8    22    23    1
     9    57    58    1
    10    88    89    1
    11    59    58    1
    12    89    92    1
    13    53    52    2
    14    52    51    1
    15    58    61    1
    16    16    17    1
    17    23    24    1
    18    23    26    1
    19    50    51    1
    20    24    25    2
    21    51    54    1
    22    17    18   ar
    23    17    19   ar
    24    92    93    1
    25    81    82    2
    26    81    80    1
    27    18    20   ar
    28    61    62    1
    29    26    27    1
    30    63    62    2
    31    19    21   ar
    32    80    79    1
    33    80    83    1
    34    30    31    1
    35    62    64   am
    36    93    94    1
    37    20    21   ar
    38    54    55    1
    39    54    56    1
    40     4     3    2
    41     3     2    1
    42    77    78   ar
    43    77    75   ar
    44    29    27   am
    45    27    28    2
    46    78    76   ar
    47    83    84    1
    48    33    32    2
    49    75    72   ar
    50    32    31    1
    51    31    34    1
    52    94    95    1
    53     2     1    1
    54     2     5    1
    55    84    85    1
    56    35    34    1
    57    35    36    1
    58    76    74   ar
    59     5     6    1
    60    11     9    1
    61    10     9    1
    62    95    96    2
    63    72    74   ar
    64    72    70   ar
    65     9     8    2
    66     6     7    1
    67    85    86   ar
    68    85    87   ar
    69    67    66    1
    70    67    68    2
    71    37    36    1
    72    37    38    2
    73    74    73   ar
    74    66    69    1
    75    66    65    1
    76     8     7    1
    77    97    96    1
    78    96    98    1
    79    40    38    1
    80    38    39    1
    81    69    70    1
    82    70    71   ar
    83    73    71   ar
    84    48    47   ar
    85    41    42    1
    86    45    42    1
    87    45    46    1
    88    47    49   ar
    89    47    46    1
    90    44    43    2
    91    42    43    1
