@<TRIPOS>MOLECULE
tmp/3ayfA03.pdb
 110 104 0 0 0
SMALL
GASTEIGER

@<TRIPOS>ATOM
      1  N          7.6130   -2.0920   21.9940 N.3     5  PHE5       -0.1227
      2  CA         8.7830   -2.7140   21.4130 C.3     5  PHE5        0.1736
      3  C          9.7060   -1.6530   20.8230 C.2     5  PHE5        0.2595
      4  O         10.9140   -1.6630   21.0770 O.2     5  PHE5       -0.2718
      5  CB         8.3980   -3.7570   20.3640 C.3     5  PHE5        0.0547
      6  CG         9.4970   -4.7570   20.0860 C.ar    5  PHE5       -0.0202
      7  CD1       10.3340   -5.1850   21.1210 C.ar    5  PHE5       -0.0042
      8  CD2        9.7060   -5.2700   18.8050 C.ar    5  PHE5       -0.0042
      9  CE1       11.3650   -6.1060   20.8920 C.ar    5  PHE5       -0.0003
     10  CE2       10.7390   -6.1970   18.5630 C.ar    5  PHE5       -0.0003
     11  CZ        11.5680   -6.6100   19.6160 C.ar    5  PHE5       -0.0000
     12  N          9.1460   -0.7240   20.0560 N.am    6  LEU6       -0.1980
     13  CA         9.9560    0.3280   19.4620 C.3     6  LEU6        0.1596
     14  C         10.7660    1.0600   20.5310 C.2     6  LEU6        0.2287
     15  O         11.9290    1.4290   20.3130 O.2     6  LEU6       -0.2864
     16  CB         9.0690    1.3150   18.6990 C.3     6  LEU6        0.0297
     17  CG         8.6480    0.8530   17.3000 C.3     6  LEU6        0.0022
     18  CD1        7.4610    1.6570   16.7900 C.3     6  LEU6        0.0001
     19  CD2        9.8550    0.9920   16.3650 C.3     6  LEU6        0.0001
     20  N         13.6850   -1.1460   21.8310 N.3     9  ILE9       -0.1245
     21  CA        14.7180   -1.1160   20.8100 C.3     9  ILE9        0.1561
     22  C         15.4920    0.1900   20.8470 C.2     9  ILE9        0.2260
     23  O         16.7180    0.1720   20.9030 O.2     9  ILE9       -0.2867
     24  CB        14.1040   -1.3470   19.4150 C.3     9  ILE9        0.0252
     25  CG1       13.5330   -2.7660   19.3680 C.3     9  ILE9        0.0019
     26  CG2       15.1580   -1.1400   18.3110 C.3     9  ILE9        0.0019
     27  CD1       12.6730   -3.0330   18.1670 C.3     9  ILE9        0.0001
     28  N         17.3800   -3.8860    7.2440 N.3   245  ILE245     -0.1245
     29  CA        16.6280   -2.6780    7.5810 C.3   245  ILE245      0.1561
     30  C         15.5030   -2.4260    6.5870 C.2   245  ILE245      0.2260
     31  O         14.3900   -2.0610    6.9650 O.2   245  ILE245     -0.2867
     32  CB        17.5430   -1.4490    7.6270 C.3   245  ILE245      0.0252
     33  CG1       18.6850   -1.6950    8.6190 C.3   245  ILE245      0.0019
     34  CG2       16.7390   -0.2140    8.0330 C.3   245  ILE245      0.0019
     35  CD1       18.2250   -1.9880   10.0410 C.3   245  ILE245      0.0001
     36  N         12.6500   -4.6160    7.4610 N.3   248  VAL248     -0.1245
     37  CA        11.9570   -4.1270    8.6550 C.3   248  VAL248      0.1561
     38  C         11.1040   -2.9280    8.2840 C.2   248  VAL248      0.2260
     39  O          9.9410   -2.8190    8.6710 O.2   248  VAL248     -0.2867
     40  CB        12.9690   -3.7300    9.7680 C.3   248  VAL248      0.0252
     41  CG1       12.2680   -2.9690   10.8730 C.3   248  VAL248      0.0019
     42  CG2       13.6340   -4.9830   10.3220 C.3   248  VAL248      0.0019
     43  N          8.0140   -4.1500    6.0900 N.3   251  ARG251     -0.1231
     44  CA         7.0400   -4.9200    6.8590 C.3   251  ARG251      0.1694
     45  C          6.3000   -4.2240    8.0000 C.2   251  ARG251      0.2592
     46  O          5.2510   -4.6880    8.4390 O.2   251  ARG251     -0.2718
     47  CB         7.6970   -6.1760    7.4180 C.3   251  ARG251      0.0321
     48  CG         7.0250   -6.6800    8.6770 C.3   251  ARG251      0.0489
     49  CD         7.2520   -8.1460    8.8960 C.3   251  ARG251      0.2205
     50  NE         6.3070   -8.6490    9.8840 N.pl3 251  ARG251     -0.0865
     51  CZ         6.3480   -9.8570   10.4380 C.cat 251  ARG251      0.5346
     52  NH1        7.3040  -10.7180   10.1040 N.pl3 251  ARG251      0.1354
     53  NH2        5.4270  -10.1940   11.3400 N.pl3 251  ARG251      0.1354
     54  N          6.8290   -3.1280    8.5090 N.am  252  TYR252     -0.1976
     55  CA         6.1330   -2.4670    9.5920 C.3   252  TYR252      0.1639
     56  C          5.6370   -1.1050    9.1840 C.2   252  TYR252      0.2290
     57  O          5.1240   -0.3530   10.0150 O.2   252  TYR252     -0.2864
     58  CB         7.0340   -2.3740   10.8200 C.3   252  TYR252      0.0560
     59  CG         7.3410   -3.7360   11.3750 C.ar  252  TYR252     -0.0198
     60  CD1        6.3070   -4.5890   11.7680 C.ar  252  TYR252     -0.0009
     61  CD2        8.6500   -4.2070   11.4390 C.ar  252  TYR252     -0.0009
     62  CE1        6.5690   -5.8870   12.2020 C.ar  252  TYR252      0.0417
     63  CE2        8.9250   -5.5090   11.8750 C.ar  252  TYR252      0.0417
     64  CZ         7.8770   -6.3430   12.2480 C.ar  252  TYR252      0.1957
     65  OH         8.1270   -7.6460   12.6160 O.3   252  TYR252     -0.2866
     66  N          7.1300    1.5420    8.5680 N.3   254  LEU254     -0.1245
     67  CA         7.7330    2.4910    9.4780 C.3   254  LEU254      0.1561
     68  C          8.0080    3.8570    8.8650 C.2   254  LEU254      0.2260
     69  O          9.1160    4.3720    8.9390 O.2   254  LEU254     -0.2867
     70  CB         9.0060    1.8790   10.0660 C.3   254  LEU254      0.0270
     71  CG         8.6730    0.7420   11.0440 C.3   254  LEU254      0.0019
     72  CD1        9.9270    0.0110   11.4830 C.3   254  LEU254      0.0001
     73  CD2        7.9470    1.3340   12.2430 C.3   254  LEU254      0.0001
     74  N          5.8070    6.4940   15.3530 N.3   517  ARG517     -0.1245
     75  CA         6.3920    5.1730   15.0920 C.3   517  ARG517      0.1563
     76  C          7.5760    5.3600   14.1450 C.2   517  ARG517      0.2260
     77  O          8.6180    4.7310   14.3050 O.2   517  ARG517     -0.2867
     78  CB         5.3750    4.2260   14.4430 C.3   517  ARG517      0.0307
     79  CG         4.2130    3.8470   15.3480 C.3   517  ARG517      0.0489
     80  CD         3.2160    2.8970   14.6790 C.3   517  ARG517      0.2205
     81  NE         3.7690    1.5580   14.5070 N.pl3 517  ARG517     -0.0865
     82  CZ         4.0930    1.0260   13.3320 C.cat 517  ARG517      0.5346
     83  NH1        3.9220    1.7200   12.2050 N.pl3 517  ARG517      0.1354
     84  NH2        4.5820   -0.2090   13.2810 N.pl3 517  ARG517      0.1354
     85  N         11.8530    4.4020   14.6640 N.3   521  PHE521     -0.1241
     86  CA        12.6640    3.6270   13.7380 C.3   521  PHE521      0.1605
     87  C         13.8910    4.4370   13.2950 C.2   521  PHE521      0.2264
     88  O         15.0160    3.9330   13.3020 O.2   521  PHE521     -0.2867
     89  CB        11.7990    3.2490   12.5340 C.3   521  PHE521      0.0534
     90  CG        12.5670    2.7230   11.3640 C.ar  521  PHE521     -0.0203
     91  CD1       13.1510    1.4610   11.4070 C.ar  521  PHE521     -0.0042
     92  CD2       12.6770    3.4790   10.2030 C.ar  521  PHE521     -0.0042
     93  CE1       13.8300    0.9530   10.3060 C.ar  521  PHE521     -0.0003
     94  CE2       13.3540    2.9850    9.0940 C.ar  521  PHE521     -0.0003
     95  CZ        13.9300    1.7180    9.1430 C.ar  521  PHE521     -0.0000
     96  N         16.4440    5.0130   16.1640 N.3   524  THR524     -0.1203
     97  CA        17.2280    3.8250   16.4600 C.3   524  THR524      0.1994
     98  C         18.2800    3.5790   15.3770 C.2   524  THR524      0.2617
     99  O         19.4390    3.3000   15.7070 O.2   524  THR524     -0.2717
    100  CB        16.3580    2.5330   16.6580 C.3   524  THR524      0.1784
    101  OG1       15.9930    1.9930   15.3900 O.3   524  THR524     -0.2211
    102  CG2       15.1060    2.8270   17.4610 C.3   524  THR524      0.0376
    103  N         17.9130    3.6950   14.0980 N.am  525  ILE525     -0.1979
    104  CA        18.9190    3.4740   13.0490 C.3   525  ILE525      0.1595
    105  C         19.8980    4.6360   12.9810 C.2   525  ILE525      0.2287
    106  O         21.0590    4.4520   12.6290 O.2   525  ILE525     -0.2864
    107  CB        18.3040    3.2230   11.6190 C.3   525  ILE525      0.0276
    108  CG1       17.4170    4.3830   11.1810 C.3   525  ILE525      0.0022
    109  CG2       17.5200    1.9350   11.6090 C.3   525  ILE525      0.0022
    110  CD1       16.8120    4.1790    9.7820 C.3   525  ILE525      0.0001
@<TRIPOS>BOND
     1    43    44    1
     2    30    31    2
     3    30    29    1
     4    44    47    1
     5    44    45    1
     6    28    29    1
     7    47    48    1
     8    36    37    1
     9    29    32    1
    10    32    34    1
    11    32    33    1
    12    45    46    2
    13    45    54   am
    14    38    37    1
    15    38    39    2
    16    54    55    1
    17    66    67    1
    18    33    35    1
    19    37    40    1
    20    48    49    1
    21    68    69    2
    22    68    67    1
    23    49    50    1
    24    94    95   ar
    25    94    92   ar
    26    95    93   ar
    27    56    55    1
    28    56    57    2
    29    67    70    1
    30    55    58    1
    31    40    42    1
    32    40    41    1
    33   110   108    1
    34    50    51    2
    35    70    71    1
    36    52    51    1
    37    92    90   ar
    38    93    91   ar
    39    51    53    1
    40    58    59    1
    41    71    72    1
    42    71    73    1
    43   108   107    1
    44    90    91   ar
    45    90    89    1
    46    59    61   ar
    47    59    60   ar
    48    61    63   ar
    49   109   107    1
    50   107   104    1
    51    60    62   ar
    52    63    64   ar
    53    62    64   ar
    54    83    82    1
    55    64    65    1
    56    89    86    1
    57   106   105    2
    58   105   104    1
    59   104   103    1
    60    84    82    1
    61    87    88    2
    62    87    86    1
    63    82    81    2
    64    86    85    1
    65   103    98   am
    66    76    77    2
    67    76    75    1
    68    78    75    1
    69    78    79    1
    70    81    80    1
    71    80    79    1
    72    75    74    1
    73    98    99    2
    74    98    97    1
    75   101   100    1
    76    96    97    1
    77    19    17    1
    78    97   100    1
    79   100   102    1
    80    18    17    1
    81    17    16    1
    82    27    25    1
    83    26    24    1
    84    10     8   ar
    85    10    11   ar
    86    16    13    1
    87     8     6   ar
    88    25    24    1
    89    24    21    1
    90    13    12    1
    91    13    14    1
    92    11     9   ar
    93    12     3   am
    94     6     5    1
    95     6     7   ar
    96    15    14    2
    97     5     2    1
    98    21    22    1
    99    21    20    1
   100     3     4    2
   101     3     2    1
   102    22    23    2
   103     9     7   ar
   104     2     1    1
