@<TRIPOS>MOLECULE
tmp/3ayfA04.pdb
 99 97 0 0 0
SMALL
GASTEIGER

@<TRIPOS>ATOM
      1  N         39.6050    3.0980   26.1550 N.3    27  TRP27      -0.1241
      2  CA        40.7470    2.4420   25.5190 C.3    27  TRP27       0.1605
      3  C         41.7040    3.4590   24.9140 C.2    27  TRP27       0.2264
      4  O         42.9140    3.2360   24.8510 O.2    27  TRP27      -0.2867
      5  CB        40.2960    1.4720   24.4270 C.3    27  TRP27       0.0550
      6  CG        39.7360    0.1850   24.9500 C.ar   27  TRP27       0.0003
      7  CD1       40.0450   -0.4250   26.1320 C.ar   27  TRP27       0.0946
      8  CD2       38.8200   -0.6900   24.2760 C.ar   27  TRP27       0.0152
      9  NE1       39.3840   -1.6220   26.2360 N.ar   27  TRP27      -0.2442
     10  CE2       38.6240   -1.8110   25.1110 C.ar   27  TRP27       0.0810
     11  CE3       38.1480   -0.6350   23.0460 C.ar   27  TRP27       0.0012
     12  CZ2       37.7800   -2.8710   24.7570 C.ar   27  TRP27       0.0191
     13  CZ3       37.3100   -1.6850   22.6950 C.ar   27  TRP27       0.0001
     14  CH2       37.1340   -2.7880   23.5490 C.ar   27  TRP27       0.0015
     15  N         43.7150    5.2450   27.6000 N.3    30  LYS30      -0.1231
     16  CA        44.6930    4.2780   28.0720 C.3    30  LYS30       0.1693
     17  C         45.7090    3.7750   27.0320 C.2    30  LYS30       0.2591
     18  O         46.7140    3.1590   27.3880 O.2    30  LYS30      -0.2718
     19  CB        43.9290    3.1010   28.6910 C.3    30  LYS30       0.0285
     20  CG        44.6110    1.7450   28.5760 C.3    30  LYS30       0.0035
     21  CD        43.6030    0.6010   28.7100 C.3    30  LYS30       0.0206
     22  CE        44.2330   -0.7610   28.3880 C.3    30  LYS30       0.1093
     23  NZ        43.2280   -1.8710   28.3640 N.3    30  LYS30      -0.1314
     24  N         45.4730    4.0340   25.7510 N.am   31  GLU31      -0.1979
     25  CA        46.4030    3.5520   24.7420 C.3    31  GLU31       0.1602
     26  C         46.9830    4.6110   23.8150 C.2    31  GLU31       0.2287
     27  O         47.8660    4.3160   23.0070 O.2    31  GLU31      -0.2864
     28  CB        45.7510    2.4260   23.9520 C.3    31  GLU31       0.0415
     29  CG        45.5240    1.2190   24.8280 C.3    31  GLU31       0.1163
     30  CD        44.8980    0.0550   24.1060 C.2    31  GLU31       0.3649
     31  OE1       44.8180    0.0870   22.8560 O.co2  31  GLU31      -0.2457
     32  OE2       44.4950   -0.9030   24.8020 O.co2  31  GLU31      -0.2457
     33  N         39.3010   -3.6500    6.9100 N.3   230  TRP230     -0.1241
     34  CA        38.0510   -3.0420    7.3490 C.3   230  TRP230      0.1605
     35  C         37.3290   -2.2320    6.2850 C.2   230  TRP230      0.2264
     36  O         36.1540   -1.8940    6.4470 O.2   230  TRP230     -0.2867
     37  CB        38.2630   -2.2340    8.6260 C.3   230  TRP230      0.0550
     38  CG        38.4490   -3.1650    9.7680 C.ar  230  TRP230      0.0003
     39  CD1       39.6150   -3.4520   10.4180 C.ar  230  TRP230      0.0946
     40  CD2       37.4680   -4.0730   10.2870 C.ar  230  TRP230      0.0152
     41  NE1       39.4240   -4.4910   11.3010 N.ar  230  TRP230     -0.2442
     42  CE2       38.1140   -4.8910   11.2380 C.ar  230  TRP230      0.0810
     43  CE3       36.1040   -4.2750   10.0340 C.ar  230  TRP230      0.0012
     44  CZ2       37.4430   -5.9010   11.9390 C.ar  230  TRP230      0.0191
     45  CZ3       35.4370   -5.2770   10.7320 C.ar  230  TRP230      0.0001
     46  CH2       36.1080   -6.0790   11.6720 C.ar  230  TRP230      0.0015
     47  N         29.2430   -5.4960    5.7500 N.3   237  ILE237     -0.1245
     48  CA        28.2660   -5.4530    6.8330 C.3   237  ILE237      0.1561
     49  C         27.1540   -4.4740    6.5000 C.2   237  ILE237      0.2260
     50  O         25.9920   -4.6920    6.8520 O.2   237  ILE237     -0.2867
     51  CB        28.9140   -5.0850    8.1860 C.3   237  ILE237      0.0252
     52  CG1       29.8460   -6.2210    8.6050 C.3   237  ILE237      0.0019
     53  CG2       27.8290   -4.8000    9.2230 C.3   237  ILE237      0.0019
     54  CD1       30.6590   -5.9380    9.8240 C.3   237  ILE237      0.0001
     55  N         43.7300    4.1150   19.3900 N.3   544  PRO544     -0.2116
     56  CA        44.1300    2.7320   19.1170 C.3   544  PRO544      0.1372
     57  C         43.4730    2.1150   17.8820 C.2   544  PRO544      0.2244
     58  O         42.3280    2.4210   17.5460 O.2   544  PRO544     -0.2868
     59  CB        43.7680    1.9910   20.4130 C.3   544  PRO544      0.0268
     60  CG        42.7100    2.8660   21.0590 C.3   544  PRO544      0.0207
     61  CD        43.2220    4.2600   20.7680 C.3   544  PRO544      0.0892
     62  N         41.7890   -0.2490   17.2180 N.3   546  VAL546     -0.1245
     63  CA        40.4380   -0.7900   17.3340 C.3   546  VAL546      0.1561
     64  C         39.3860    0.1420   16.7360 C.2   546  VAL546      0.2260
     65  O         38.3270   -0.3070   16.2690 O.2   546  VAL546     -0.2867
     66  CB        40.0820   -1.0800   18.8220 C.3   546  VAL546      0.0252
     67  CG1       40.0520    0.2210   19.6250 C.3   546  VAL546      0.0019
     68  CG2       38.7400   -1.7770   18.9130 C.3   546  VAL546      0.0019
     69  N         38.2470   -0.4390   12.9450 N.3   549  ALA549     -0.1231
     70  CA        37.1630   -1.4020   12.7310 C.3   549  ALA549      0.1694
     71  C         35.8250   -0.8070   13.1580 C.2   549  ALA549      0.2591
     72  O         34.8730   -0.7800   12.3700 O.2   549  ALA549     -0.2718
     73  CB        37.4340   -2.6810   13.5150 C.3   549  ALA549      0.0304
     74  N         35.7670   -0.3340   14.4090 N.am  550  LEU550     -0.1980
     75  CA        34.5610    0.2760   14.9810 C.3   550  LEU550      0.1596
     76  C         34.0530    1.4580   14.1550 C.2   550  LEU550      0.2287
     77  O         32.8630    1.5520   13.8460 O.2   550  LEU550     -0.2864
     78  CB        34.8280    0.7650   16.4130 C.3   550  LEU550      0.0297
     79  CG        34.8950   -0.2720   17.5360 C.3   550  LEU550      0.0022
     80  CD1       35.2570    0.4200   18.8380 C.3   550  LEU550      0.0001
     81  CD2       33.5520   -0.9990   17.6570 C.3   550  LEU550      0.0001
     82  N         33.0110    0.3790   10.3240 N.3   553  VAL553     -0.1231
     83  CA        31.7550   -0.3610   10.2980 C.3   553  VAL553      0.1692
     84  C         30.5180    0.4720   10.6320 C.2   553  VAL553      0.2592
     85  O         29.5470    0.4600    9.8770 O.2   553  VAL553     -0.2718
     86  CB        31.8110   -1.6000   11.2380 C.3   553  VAL553      0.0266
     87  CG1       30.3930   -2.1960   11.4280 C.3   553  VAL553      0.0020
     88  CG2       32.7620   -2.6630   10.6420 C.3   553  VAL553      0.0020
     89  N         30.5520    1.2060   11.7440 N.am  554  PHE554     -0.1976
     90  CA        29.3980    2.0080   12.1380 C.3   554  PHE554      0.1639
     91  C         29.1200    3.2760   11.3230 C.2   554  PHE554      0.2290
     92  O         27.9640    3.6920   11.1750 O.2   554  PHE554     -0.2864
     93  CB        29.4550    2.2930   13.6460 C.3   554  PHE554      0.0560
     94  CG        29.1360    1.0820   14.4730 C.ar  554  PHE554     -0.0200
     95  CD1       30.1200    0.1500   14.7890 C.ar  554  PHE554     -0.0042
     96  CD2       27.8160    0.7790   14.7890 C.ar  554  PHE554     -0.0042
     97  CE1       29.7900   -1.0720   15.3960 C.ar  554  PHE554     -0.0003
     98  CE2       27.4840   -0.4360   15.3910 C.ar  554  PHE554     -0.0003
     99  CZ        28.4730   -1.3630   15.6910 C.ar  554  PHE554     -0.0000
@<TRIPOS>BOND
     1    47    48    1
     2    35    36    2
     3    35    34    1
     4    49    48    1
     5    49    50    2
     6    48    51    1
     7    33    34    1
     8    34    37    1
     9    51    52    1
    10    51    53    1
    11    52    54    1
    12    37    38    1
    13    38    40   ar
    14    38    39   ar
    15    85    84    2
    16    43    40   ar
    17    43    45   ar
    18    40    42   ar
    19    83    82    1
    20    83    84    1
    21    83    86    1
    22    39    41   ar
    23    84    89   am
    24    88    86    1
    25    45    46   ar
    26    92    91    2
    27    42    41   ar
    28    42    44   ar
    29    86    87    1
    30    91    90    1
    31    46    44   ar
    32    89    90    1
    33    90    93    1
    34    72    71    2
    35    70    69    1
    36    70    71    1
    37    70    73    1
    38    71    74   am
    39    93    94    1
    40    77    76    2
    41    76    75    1
    42    74    75    1
    43    94    95   ar
    44    94    96   ar
    45    95    97   ar
    46    96    98   ar
    47    75    78    1
    48    98    99   ar
    49    97    99   ar
    50    65    64    2
    51    78    79    1
    52    64    63    1
    53    62    63    1
    54    63    66    1
    55    79    81    1
    56    79    80    1
    57    58    57    2
    58    57    56    1
    59    66    68    1
    60    66    67    1
    61    56    55    1
    62    56    59    1
    63    55    61    1
    64    59    60    1
    65    61    60    1
    66    13    11   ar
    67    13    14   ar
    68    31    30   ar
    69    27    26    2
    70    11     8   ar
    71    14    12   ar
    72    26    25    1
    73    28    25    1
    74    28    29    1
    75    30    32   ar
    76    30    29    1
    77     8     6   ar
    78     8    10   ar
    79     5     6    1
    80     5     2    1
    81    25    24    1
    82    12    10   ar
    83     4     3    2
    84     3     2    1
    85     6     7   ar
    86    10     9   ar
    87     2     1    1
    88    24    17   am
    89     7     9   ar
    90    17    18    2
    91    17    16    1
    92    15    16    1
    93    16    19    1
    94    23    22    1
    95    22    21    1
    96    20    19    1
    97    20    21    1
