@<TRIPOS>MOLECULE
tmp/3ayfA07.pdb
 163 159 0 0 0
SMALL
GASTEIGER

@<TRIPOS>ATOM
      1  N          7.2920   15.7700   -1.9640 N.3   573  TYR573     -0.1241
      2  CA         7.0420   16.4800   -3.2070 C.3   573  TYR573      0.1605
      3  C          5.5880   16.1810   -3.5420 C.2   573  TYR573      0.2264
      4  O          4.8060   17.0580   -3.8870 O.2   573  TYR573     -0.2867
      5  CB         7.9400   15.9270   -4.3140 C.3   573  TYR573      0.0534
      6  CG         7.5910   16.4150   -5.7020 C.ar  573  TYR573     -0.0201
      7  CD1        8.0000   17.6620   -6.1430 C.ar  573  TYR573     -0.0009
      8  CD2        6.8390   15.6240   -6.5750 C.ar  573  TYR573     -0.0009
      9  CE1        7.6780   18.1180   -7.4180 C.ar  573  TYR573      0.0417
     10  CE2        6.5040   16.0750   -7.8520 C.ar  573  TYR573      0.0417
     11  CZ         6.9300   17.3210   -8.2650 C.ar  573  TYR573      0.1957
     12  OH         6.6250   17.7780   -9.5260 O.3   573  TYR573     -0.2866
     13  N          3.1320   18.0170   -1.5100 N.3   576  MET576     -0.1230
     14  CA         3.2500   19.4300   -1.8520 C.3   576  MET576      0.1702
     15  C          2.3560   19.6800   -3.0650 C.2   576  MET576      0.2592
     16  O          1.7580   20.7430   -3.1940 O.2   576  MET576     -0.2718
     17  CB         4.6920   19.7870   -2.2050 C.3   576  MET576      0.0401
     18  CG         4.8560   21.1860   -2.7540 C.3   576  MET576      0.0596
     19  SD         6.5670   21.6170   -3.0760 S.3   576  MET576     -0.1393
     20  CE         6.7220   21.1240   -4.7920 C.3   576  MET576      0.0692
     21  N          2.2720   18.6920   -3.9540 N.am  577  ARG577     -0.1980
     22  CA         1.4330   18.7980   -5.1430 C.3   577  ARG577      0.1597
     23  C         -0.0310   18.6040   -4.8040 C.2   577  ARG577      0.2287
     24  O         -0.9070   19.2350   -5.4020 O.2   577  ARG577     -0.2864
     25  CB         1.8480   17.7770   -6.2140 C.3   577  ARG577      0.0334
     26  CG         2.9460   18.2880   -7.1290 C.3   577  ARG577      0.0492
     27  CD         2.6580   19.7410   -7.4590 C.3   577  ARG577      0.2205
     28  NE         3.7530   20.4070   -8.1520 N.pl3 577  ARG577     -0.0865
     29  CZ         3.6980   20.8080   -9.4180 C.cat 577  ARG577      0.5346
     30  NH1        2.6010   20.6050  -10.1360 N.pl3 577  ARG577      0.1354
     31  NH2        4.7370   21.4270   -9.9640 N.pl3 577  ARG577      0.1354
     32  N         10.3820   22.9850   -0.7700 N.3   590  TRP590     -0.1241
     33  CA        11.4610   22.8980   -1.7600 C.3   590  TRP590      0.1605
     34  C         12.8020   22.7600   -1.0500 C.2   590  TRP590      0.2264
     35  O         13.7320   22.1500   -1.5740 O.2   590  TRP590     -0.2867
     36  CB        11.5640   24.1350   -2.6520 C.3   590  TRP590      0.0550
     37  CG        10.3390   24.5540   -3.3620 C.ar  590  TRP590      0.0003
     38  CD1        9.2930   23.7660   -3.7630 C.ar  590  TRP590      0.0946
     39  CD2       10.0460   25.8760   -3.8180 C.ar  590  TRP590      0.0152
     40  NE1        8.3670   24.5220   -4.4410 N.ar  590  TRP590     -0.2442
     41  CE2        8.8030   25.8210   -4.4910 C.ar  590  TRP590      0.0810
     42  CE3       10.7170   27.1100   -3.7260 C.ar  590  TRP590      0.0012
     43  CZ2        8.2120   26.9600   -5.0740 C.ar  590  TRP590      0.0191
     44  CZ3       10.1260   28.2440   -4.3050 C.ar  590  TRP590      0.0001
     45  CH2        8.8880   28.1570   -4.9680 C.ar  590  TRP590      0.0015
     46  N         12.8200   19.1210    0.4990 N.3   593  ILE593     -0.1231
     47  CA        13.1930   18.1580   -0.5380 C.3   593  ILE593      0.1692
     48  C         14.6860   18.2750   -0.8230 C.2   593  ILE593      0.2592
     49  O         15.3950   17.2700   -0.9650 O.2   593  ILE593     -0.2718
     50  CB        12.4030   18.4230   -1.8300 C.3   593  ILE593      0.0266
     51  CG1       10.9220   18.1100   -1.5770 C.3   593  ILE593      0.0019
     52  CG2       12.9880   17.6090   -2.9900 C.3   593  ILE593      0.0020
     53  CD1        9.9910   18.5620   -2.6740 C.3   593  ILE593      0.0001
     54  N         15.1560   19.5160   -0.9000 N.am  594  SER594     -0.1952
     55  CA        16.5700   19.7740   -1.1330 C.3   594  SER594      0.1924
     56  C         17.4650   19.1480   -0.0530 C.2   594  SER594      0.2314
     57  O         18.5000   18.5760   -0.3860 O.2   594  SER594     -0.2863
     58  CB        16.8390   21.2840   -1.2050 C.3   594  SER594      0.2116
     59  OG        16.2970   21.8560   -2.3920 O.3   594  SER594     -0.2180
     60  N         17.7430   15.2930   -0.5870 N.3   597  ILE597     -0.1231
     61  CA        18.6040   14.9010   -1.6890 C.3   597  ILE597      0.1692
     62  C         20.0830   15.1330   -1.3660 C.2   597  ILE597      0.2592
     63  O         20.9410   14.2940   -1.6930 O.2   597  ILE597     -0.2718
     64  CB        18.1930   15.6360   -2.9830 C.3   597  ILE597      0.0266
     65  CG1       16.7460   15.2590   -3.3290 C.3   597  ILE597      0.0019
     66  CG2       19.1300   15.2700   -4.1180 C.3   597  ILE597      0.0020
     67  CD1       16.0610   16.2140   -4.2740 C.3   597  ILE597      0.0001
     68  N         20.3990   16.2600   -0.7290 N.am  598  TRP598     -0.1976
     69  CA        21.7860   16.5260   -0.3720 C.3   598  TRP598      0.1640
     70  C         22.2150   15.5800    0.7340 C.2   598  TRP598      0.2290
     71  O         23.4070   15.3350    0.9280 O.2   598  TRP598     -0.2864
     72  CB        21.9770   17.9670    0.0820 C.3   598  TRP598      0.0576
     73  CG        22.1570   18.9080   -1.0690 C.ar  598  TRP598      0.0006
     74  CD1       21.2520   19.8160   -1.5390 C.ar  598  TRP598      0.0946
     75  CD2       23.3130   19.0190   -1.9070 C.ar  598  TRP598      0.0152
     76  NE1       21.7740   20.4870   -2.6110 N.ar  598  TRP598     -0.2442
     77  CE2       23.0390   20.0200   -2.8620 C.ar  598  TRP598      0.0810
     78  CE3       24.5560   18.3660   -1.9440 C.ar  598  TRP598      0.0012
     79  CZ2       23.9640   20.3910   -3.8480 C.ar  598  TRP598      0.0191
     80  CZ3       25.4800   18.7300   -2.9280 C.ar  598  TRP598      0.0001
     81  CH2       25.1760   19.7380   -3.8670 C.ar  598  TRP598      0.0015
     82  N         23.3440   12.7130   -1.3930 N.3   601  VAL601     -0.1245
     83  CA        24.5320   13.1080   -2.1530 C.3   601  VAL601      0.1561
     84  C         25.7050   13.7290   -1.3740 C.2   601  VAL601      0.2260
     85  O         26.8620   13.3150   -1.5170 O.2   601  VAL601     -0.2867
     86  CB        24.1240   14.0700   -3.2870 C.3   601  VAL601      0.0252
     87  CG1       25.3530   14.5290   -4.0670 C.3   601  VAL601      0.0019
     88  CG2       23.1370   13.3580   -4.2140 C.3   601  VAL601      0.0019
     89  N         29.2620   11.7760   -1.0650 N.3   606  PHE606     -0.1241
     90  CA        30.5310   12.4730   -0.8950 C.3   606  PHE606      0.1605
     91  C         31.1780   12.0870    0.4340 C.2   606  PHE606      0.2264
     92  O         32.4010   11.9810    0.5170 O.2   606  PHE606     -0.2867
     93  CB        30.3710   14.0040   -1.0340 C.3   606  PHE606      0.0534
     94  CG        30.3350   14.4760   -2.4780 C.ar  606  PHE606     -0.0203
     95  CD1       31.4830   14.4460   -3.2680 C.ar  606  PHE606     -0.0042
     96  CD2       29.1320   14.8620   -3.0730 C.ar  606  PHE606     -0.0042
     97  CE1       31.4350   14.7830   -4.6320 C.ar  606  PHE606     -0.0003
     98  CE2       29.0640   15.2040   -4.4340 C.ar  606  PHE606     -0.0003
     99  CZ        30.2130   15.1640   -5.2140 C.ar  606  PHE606     -0.0000
    100  N         12.1530   30.8470   -4.9150 N.3   664  LYS664     -0.1245
    101  CA        12.4120   29.8470   -5.9430 C.3   664  LYS664      0.1561
    102  C         13.7980   30.1190   -6.4910 C.2   664  LYS664      0.2260
    103  O         14.6090   29.2050   -6.6500 O.2   664  LYS664     -0.2867
    104  CB        11.3890   29.9590   -7.0760 C.3   664  LYS664      0.0271
    105  CG        11.7540   29.1450   -8.3080 C.3   664  LYS664      0.0035
    106  CD        10.8090   29.3860   -9.4760 C.3   664  LYS664      0.0206
    107  CE         9.4700   28.6950   -9.2860 C.3   664  LYS664      0.1093
    108  NZ         8.5760   28.9220  -10.4630 N.3   664  LYS664     -0.1314
    109  N         16.4430   29.1870   -3.8670 N.3   667  CYS667     -0.1221
    110  CA        16.5690   27.7500   -3.8380 C.3   667  CYS667      0.1808
    111  C         17.4270   27.2740   -5.0150 C.2   667  CYS667      0.2601
    112  O         18.3550   26.4820   -4.8220 O.2   667  CYS667     -0.2717
    113  CB        15.1810   27.1210   -3.8920 C.3   667  CYS667      0.0970
    114  SG        15.1650   25.3570   -3.5400 S.3   667  CYS667     -0.0800
    115  N         17.1220   27.7610   -6.2220 N.am  668  TRP668     -0.1976
    116  CA        17.8820   27.4120   -7.4310 C.3   668  TRP668      0.1640
    117  C         19.3290   27.8590   -7.3290 C.2   668  TRP668      0.2290
    118  O         20.2520   27.0770   -7.5690 O.2   668  TRP668     -0.2864
    119  CB        17.2960   28.0800   -8.6780 C.3   668  TRP668      0.0576
    120  CG        16.3860   27.2280   -9.4860 C.ar  668  TRP668      0.0006
    121  CD1       15.0220   27.1590   -9.3980 C.ar  668  TRP668      0.0946
    122  CD2       16.7690   26.3130  -10.5200 C.ar  668  TRP668      0.0152
    123  NE1       14.5300   26.2580  -10.3200 N.ar  668  TRP668     -0.2442
    124  CE2       15.5810   25.7240  -11.0210 C.ar  668  TRP668      0.0810
    125  CE3       17.9980   25.9340  -11.0730 C.ar  668  TRP668      0.0012
    126  CZ2       15.5900   24.7720  -12.0530 C.ar  668  TRP668      0.0191
    127  CZ3       18.0100   24.9900  -12.0960 C.ar  668  TRP668      0.0001
    128  CH2       16.8120   24.4190  -12.5760 C.ar  668  TRP668      0.0015
    129  N         21.2910   25.8240   -4.4770 N.3   671  ASN671     -0.1225
    130  CA        21.5780   24.4540   -4.8920 C.3   671  ASN671      0.1785
    131  C         22.6460   24.3770   -5.9900 C.2   671  ASN671      0.2597
    132  O         23.6060   23.6040   -5.8870 O.2   671  ASN671     -0.2718
    133  CB        20.2860   23.7510   -5.3780 C.3   671  ASN671      0.1169
    134  CG        19.4580   23.1400   -4.2320 C.2   671  ASN671      0.2627
    135  OD1       19.9830   22.4080   -3.3920 O.2   671  ASN671     -0.2716
    136  ND2       18.1620   23.4230   -4.2160 N.am  671  ASN671     -0.0877
    137  N         22.4820   25.1790   -7.0360 N.am  672  ILE672     -0.1980
    138  CA        23.4130   25.1710   -8.1550 C.3   672  ILE672      0.1595
    139  C         24.8070   25.5730   -7.7340 C.2   672  ILE672      0.2287
    140  O         25.7910   24.9210   -8.0940 O.2   672  ILE672     -0.2864
    141  CB        22.9230   26.1120   -9.2840 C.3   672  ILE672      0.0276
    142  CG1       21.6930   25.5050   -9.9490 C.3   672  ILE672      0.0022
    143  CG2       23.9980   26.3110  -10.3270 C.3   672  ILE672      0.0022
    144  CD1       21.1130   26.3850  -11.0140 C.3   672  ILE672      0.0001
    145  N         26.4980   22.7130   -5.5970 N.3   675  ALA675     -0.1245
    146  CA        26.9550   21.5980   -6.4320 C.3   675  ALA675      0.1562
    147  C         28.1370   22.0270   -7.2870 C.2   675  ALA675      0.2260
    148  O         29.1110   21.2850   -7.4520 O.2   675  ALA675     -0.2867
    149  CB        25.8230   21.1000   -7.3230 C.3   675  ALA675      0.0290
    150  N         31.4600   22.2970   -5.3220 N.3   678  VAL678     -0.1231
    151  CA        31.9070   20.9500   -5.0000 C.3   678  VAL678      0.1692
    152  C         32.4820   20.2410   -6.2250 C.2   678  VAL678      0.2591
    153  O         33.6300   19.7910   -6.2260 O.2   678  VAL678     -0.2718
    154  CB        30.7370   20.1040   -4.4690 C.3   678  VAL678      0.0266
    155  CG1       31.1550   18.6380   -4.3400 C.3   678  VAL678      0.0020
    156  CG2       30.2770   20.6620   -3.1330 C.3   678  VAL678      0.0020
    157  N         31.6640   20.1360   -7.2650 N.am  679  VAL679     -0.1980
    158  CA        32.0390   19.4570   -8.5080 C.3   679  VAL679      0.1595
    159  C         33.1010   20.1330   -9.3820 C.2   679  VAL679      0.2287
    160  O         33.9790   19.4680   -9.9170 O.2   679  VAL679     -0.2864
    161  CB        30.7660   19.2020   -9.3660 C.3   679  VAL679      0.0276
    162  CG1       31.1250   18.9380  -10.8270 C.3   679  VAL679      0.0022
    163  CG2       30.0170   18.0210   -8.7970 C.3   679  VAL679      0.0022
@<TRIPOS>BOND
     1   128   127   ar
     2   128   126   ar
     3   127   125   ar
     4   126   124   ar
     5   125   122   ar
     6   124   122   ar
     7   124   123   ar
     8   144   142    1
     9   162   161    1
    10   122   120   ar
    11   108   107    1
    12   143   141    1
    13   123   121   ar
    14    30    29    1
    15    31    29    1
    16   142   141    1
    17   160   159    2
    18    12    11    1
    19   120   121   ar
    20   120   119    1
    21   106   107    1
    22   106   105    1
    23    29    28    2
    24   159   158    1
    25   161   163    1
    26   161   158    1
    27   141   138    1
    28   119   116    1
    29   158   157    1
    30   105   104    1
    31    11    10   ar
    32    11     9   ar
    33   138   139    1
    34   138   137    1
    35    28    27    1
    36   140   139    2
    37    10     8   ar
    38   118   117    2
    39    27    26    1
    40   148   147    2
    41   116   117    1
    42   116   115    1
    43     9     7   ar
    44   149   146    1
    45   147   146    1
    46   157   152   am
    47    26    25    1
    48   104   101    1
    49   137   131   am
    50   103   102    2
    51     8     6   ar
    52   102   101    1
    53   146   145    1
    54   153   152    2
    55   152   151    1
    56   115   111   am
    57    25    22    1
    58     7     6   ar
    59   131   132    2
    60   131   130    1
    61   101   100    1
    62     6     5    1
    63    24    23    2
    64   133   130    1
    65   133   134    1
    66   150   151    1
    67    99    97   ar
    68    99    98   ar
    69    22    23    1
    70    22    21    1
    71    43    45   ar
    72    43    41   ar
    73   111   112    2
    74   111   110    1
    75   151   154    1
    76    45    44   ar
    77   130   129    1
    78    20    19    1
    79    97    95   ar
    80    41    40   ar
    81    41    39   ar
    82   154   155    1
    83   154   156    1
    84    40    38   ar
    85    98    96   ar
    86     5     2    1
    87    44    42   ar
    88    67    65    1
    89   134   136   am
    90   134   135    2
    91    88    86    1
    92    66    64    1
    93    87    86    1
    94    21    15   am
    95   113   110    1
    96   113   114    1
    97     4     3    2
    98   109   110    1
    99    81    79   ar
   100    81    80   ar
   101    79    77   ar
   102    39    42   ar
   103    39    37   ar
   104    38    37   ar
   105     3     2    1
   106    37    36    1
   107    65    64    1
   108    86    83    1
   109    95    94   ar
   110     2     1    1
   111    16    15    2
   112    19    18    1
   113    96    94   ar
   114    15    14    1
   115    52    50    1
   116    64    61    1
   117    80    78   ar
   118    77    76   ar
   119    77    75   ar
   120    18    17    1
   121    53    51    1
   122    36    33    1
   123    76    74   ar
   124    94    93    1
   125    59    58    1
   126    17    14    1
   127    83    82    1
   128    83    84    1
   129    78    75   ar
   130    75    73   ar
   131    14    13    1
   132    50    51    1
   133    50    47    1
   134    33    34    1
   135    33    32    1
   136    63    62    2
   137    61    62    1
   138    61    60    1
   139    35    34    2
   140    74    73   ar
   141    85    84    2
   142    62    68   am
   143    58    55    1
   144    55    54    1
   145    55    56    1
   146    73    72    1
   147    89    90    1
   148    93    90    1
   149    49    48    2
   150    54    48   am
   151    90    91    1
   152    48    47    1
   153    68    69    1
   154    47    46    1
   155    57    56    2
   156    69    72    1
   157    69    70    1
   158    91    92    2
   159    70    71    2
