@<TRIPOS>MOLECULE
tmp/3ayfA05.pdb
 104 98 0 0 0
SMALL
GASTEIGER

@<TRIPOS>ATOM
      1  N         30.1710   35.2870    3.1530 N.3   298  MET298     -0.1245
      2  CA        31.2000   36.2400    2.7640 C.3   298  MET298      0.1570
      3  C         32.5860   35.7960    3.1890 C.2   298  MET298      0.2261
      4  O         33.5320   35.8190    2.3880 O.2   298  MET298     -0.2867
      5  CB        30.8820   37.6140    3.3450 C.3   298  MET298      0.0387
      6  CG        29.7670   38.3350    2.6160 C.3   298  MET298      0.0595
      7  SD        30.2250   38.5190    0.8880 S.3   298  MET298     -0.1393
      8  CE        28.6540   39.0580    0.1700 C.3   298  MET298      0.0692
      9  N         33.7820   33.3430    1.0260 N.3   301  ALA301     -0.1231
     10  CA        34.2450   33.9280   -0.2240 C.3   301  ALA301      0.1694
     11  C         35.6650   34.4410   -0.0310 C.2   301  ALA301      0.2591
     12  O         36.5000   34.3910   -0.9420 O.2   301  ALA301     -0.2718
     13  CB        33.3280   35.0620   -0.6370 C.3   301  ALA301      0.0304
     14  N         35.9430   34.9230    1.1710 N.am  302  LEU302     -0.1980
     15  CA        37.2650   35.4310    1.4670 C.3   302  LEU302      0.1596
     16  C         38.2850   34.2980    1.5420 C.2   302  LEU302      0.2287
     17  O         39.3550   34.3740    0.9380 O.2   302  LEU302     -0.2864
     18  CB        37.2340   36.2120    2.7830 C.3   302  LEU302      0.0297
     19  CG        38.5840   36.7590    3.2560 C.3   302  LEU302      0.0022
     20  CD1       39.2290   37.5840    2.1410 C.3   302  LEU302      0.0001
     21  CD2       38.3820   37.5930    4.5020 C.3   302  LEU302      0.0001
     22  N         39.2630   32.9640   -1.7500 N.3   305  HIS305     -0.1241
     23  CA        40.0950   33.9290   -2.4450 C.3   305  HIS305      0.1621
     24  C         41.5540   33.7890   -2.0120 C.2   305  HIS305      0.2264
     25  O         42.4590   33.8000   -2.8500 O.2   305  HIS305     -0.2867
     26  CB        39.6060   35.3520   -2.1690 C.3   305  HIS305      0.0745
     27  CG        40.3530   36.3930   -2.9380 C.ar  305  HIS305      0.0817
     28  ND1       40.0830   36.6750   -4.2600 N.ar  305  HIS305     -0.2268
     29  CD2       41.4230   37.1520   -2.6020 C.ar  305  HIS305      0.1154
     30  CE1       40.9570   37.5600   -4.7070 C.ar  305  HIS305      0.1986
     31  NE2       41.7810   37.8640   -3.7200 N.ar  305  HIS305     -0.2212
     32  N         44.1730   31.8440   -3.8050 N.3   308  THR308     -0.1218
     33  CA        44.7090   32.4340   -5.0320 C.3   308  THR308      0.1862
     34  C         45.5660   33.6630   -4.7250 C.2   308  THR308      0.2287
     35  O         46.5430   33.9290   -5.4180 O.2   308  THR308     -0.2866
     36  CB        43.5680   32.7860   -6.0420 C.3   308  THR308      0.1770
     37  OG1       42.6890   33.7680   -5.4860 O.3   308  THR308     -0.2211
     38  CG2       42.7540   31.5450   -6.3610 C.3   308  THR308      0.0375
     39  N         43.5930   40.7920   -0.3770 N.3   313  PHE313     -0.1227
     40  CA        42.2900   40.6390   -1.0070 C.3   313  PHE313      0.1736
     41  C         42.1900   41.6620   -2.1320 C.2   313  PHE313      0.2595
     42  O         41.6660   42.7560   -1.9320 O.2   313  PHE313     -0.2718
     43  CB        41.1630   40.8830   -0.0030 C.3   313  PHE313      0.0547
     44  CG        39.7830   40.7290   -0.5900 C.ar  313  PHE313     -0.0202
     45  CD1       39.4210   39.5620   -1.2610 C.ar  313  PHE313     -0.0042
     46  CD2       38.8360   41.7420   -0.4620 C.ar  313  PHE313     -0.0042
     47  CE1       38.1320   39.4040   -1.7970 C.ar  313  PHE313     -0.0003
     48  CE2       37.5460   41.5960   -0.9920 C.ar  313  PHE313     -0.0003
     49  CZ        37.1940   40.4250   -1.6600 C.ar  313  PHE313     -0.0000
     50  N         42.7050   41.3050   -3.3070 N.am  314  PHE314     -0.1976
     51  CA        42.6800   42.1960   -4.4650 C.3   314  PHE314      0.1639
     52  C         43.5180   43.4530   -4.2330 C.2   314  PHE314      0.2290
     53  O         43.0640   44.5600   -4.5160 O.2   314  PHE314     -0.2864
     54  CB        41.2450   42.6250   -4.7760 C.3   314  PHE314      0.0560
     55  CG        40.3980   41.5460   -5.3780 C.ar  314  PHE314     -0.0200
     56  CD1       40.6300   41.1100   -6.6780 C.ar  314  PHE314     -0.0042
     57  CD2       39.3360   41.0020   -4.6630 C.ar  314  PHE314     -0.0042
     58  CE1       39.8090   40.1470   -7.2640 C.ar  314  PHE314     -0.0003
     59  CE2       38.5120   40.0440   -5.2340 C.ar  314  PHE314     -0.0003
     60  CZ        38.7470   39.6150   -6.5390 C.ar  314  PHE314     -0.0000
     61  N         41.1430   26.3890   -8.6280 N.3   716  LEU716     -0.1231
     62  CA        40.7920   27.2670   -7.5100 C.3   716  LEU716      0.1693
     63  C         40.1570   28.5730   -7.9880 C.2   716  LEU716      0.2591
     64  O         39.1850   29.0510   -7.4040 O.2   716  LEU716     -0.2718
     65  CB        42.0480   27.5780   -6.6750 C.3   716  LEU716      0.0284
     66  CG        42.3170   26.8130   -5.3670 C.3   716  LEU716      0.0019
     67  CD1       41.5500   25.4860   -5.3160 C.3   716  LEU716      0.0001
     68  CD2       43.8280   26.6200   -5.2290 C.3   716  LEU716      0.0001
     69  N         40.7100   29.1430   -9.0560 N.am  717  LEU717     -0.1980
     70  CA        40.2320   30.4020   -9.6320 C.3   717  LEU717      0.1596
     71  C         38.7840   30.3700  -10.1430 C.2   717  LEU717      0.2287
     72  O         38.0410   31.3390   -9.9660 O.2   717  LEU717     -0.2864
     73  CB        41.1650   30.8180  -10.7790 C.3   717  LEU717      0.0297
     74  CG        42.0280   32.0910  -10.7310 C.3   717  LEU717      0.0022
     75  CD1       42.1050   32.6750   -9.3080 C.3   717  LEU717      0.0001
     76  CD2       43.4270   31.7540  -11.2700 C.3   717  LEU717      0.0001
     77  N         35.0320   30.8220   -8.3320 N.3   720  ALA720     -0.1245
     78  CA        34.3360   32.0990   -8.2470 C.3   720  ALA720      0.1562
     79  C         32.9920   32.0850   -8.9190 C.2   720  ALA720      0.2260
     80  O         32.0520   32.6840   -8.4070 O.2   720  ALA720     -0.2867
     81  CB        35.1830   33.2070   -8.8240 C.3   720  ALA720      0.0290
     82  N         30.7050   30.1020   -6.6730 N.3   723  ASP723     -0.1225
     83  CA        30.7080   30.7760   -5.3690 C.3   723  ASP723      0.1805
     84  C         29.8940   32.0640   -5.4320 C.2   723  ASP723      0.2598
     85  O         29.2420   32.4490   -4.4590 O.2   723  ASP723     -0.2718
     86  CB        32.1270   31.1210   -4.9120 C.3   723  ASP723      0.1424
     87  CG        32.8570   29.9370   -4.3160 C.2   723  ASP723      0.3668
     88  OD1       32.1920   28.9720   -3.8820 O.co2 723  ASP723     -0.2456
     89  OD2       34.1000   29.9780   -4.2580 O.co2 723  ASP723     -0.2456
     90  N         29.9290   32.7280   -6.5810 N.am  724  THR724     -0.1953
     91  CA        29.1970   33.9790   -6.7500 C.3   724  THR724      0.1897
     92  C         27.7260   33.6360   -6.8920 C.2   724  THR724      0.2313
     93  O         26.8650   34.2850   -6.3080 O.2   724  THR724     -0.2863
     94  CB        29.7360   34.7540   -7.9830 C.3   724  THR724      0.1794
     95  OG1       31.1030   35.1290   -7.7460 O.3   724  THR724     -0.2208
     96  CG2       28.9390   36.0050   -8.2300 C.3   724  THR724      0.0378
     97  N         26.4760   32.9630   -3.5920 N.3   727  LEU727     -0.1245
     98  CA        26.3580   34.2260   -2.8980 C.3   727  LEU727      0.1561
     99  C         25.0600   34.9250   -3.2940 C.2   727  LEU727      0.2260
    100  O         24.3270   35.4180   -2.4390 O.2   727  LEU727     -0.2867
    101  CB        27.5460   35.1120   -3.2380 C.3   727  LEU727      0.0270
    102  CG        28.0080   36.0480   -2.1220 C.3   727  LEU727      0.0019
    103  CD1       28.9210   37.1170   -2.7060 C.3   727  LEU727      0.0001
    104  CD2       26.7920   36.6880   -1.4510 C.3   727  LEU727      0.0001
@<TRIPOS>BOND
     1    76    74    1
     2    73    74    1
     3    73    70    1
     4    74    75    1
     5    71    72    2
     6    71    70    1
     7    70    69    1
     8    69    63   am
     9    79    80    2
    10    79    78    1
    11    81    78    1
    12    61    62    1
    13    77    78    1
    14    96    94    1
    15    63    62    1
    16    63    64    2
    17    94    95    1
    18    94    91    1
    19    62    65    1
    20    58    56   ar
    21    58    60   ar
    22    92    91    1
    23    92    93    2
    24    91    90    1
    25    56    55   ar
    26    65    66    1
    27    82    83    1
    28    90    84   am
    29    60    59   ar
    30    38    36    1
    31    36    37    1
    32    36    33    1
    33    84    83    1
    34    84    85    2
    35    35    34    2
    36    55    54    1
    37    55    57   ar
    38    83    86    1
    39    66    67    1
    40    66    68    1
    41    59    57   ar
    42    33    34    1
    43    33    32    1
    44    86    87    1
    45    54    51    1
    46    30    28   ar
    47    30    31   ar
    48    53    52    2
    49    51    52    1
    50    51    50    1
    51    87    89   ar
    52    87    88   ar
    53    28    27   ar
    54    31    29   ar
    55    97    98    1
    56    50    41   am
    57    99    98    1
    58    99   100    2
    59   101    98    1
    60   101   102    1
    61    27    29   ar
    62    27    26    1
    63    25    24    2
    64   103   102    1
    65    23    26    1
    66    23    24    1
    67    23    22    1
    68    41    42    2
    69    41    40    1
    70   102   104    1
    71    47    49   ar
    72    47    45   ar
    73    49    48   ar
    74    45    44   ar
    75    40    39    1
    76    40    43    1
    77    48    46   ar
    78    12    11    2
    79    13    10    1
    80    44    46   ar
    81    44    43    1
    82    10    11    1
    83    10     9    1
    84    11    14   am
    85     8     7    1
    86     7     6    1
    87    17    16    2
    88    14    15    1
    89    15    16    1
    90    15    18    1
    91    20    19    1
    92     4     3    2
    93     6     5    1
    94     2     1    1
    95     2     3    1
    96     2     5    1
    97    18    19    1
    98    19    21    1
