@<TRIPOS>MOLECULE
tmp/3ayfA06.pdb
 235 224 0 0 0
SMALL
GASTEIGER

@<TRIPOS>ATOM
      1  N          0.5800    0.8430   27.0330 N.3     1  THR1       -0.1203
      2  CA         1.8620    0.3260   26.4590 C.3     1  THR1        0.1994
      3  C          1.9020    0.5160   24.9360 C.2     1  THR1        0.2618
      4  O          2.3240   -0.3830   24.2160 O.2     1  THR1       -0.2717
      5  CB         1.9940   -1.1810   26.7400 C.3     1  THR1        0.1784
      6  OG1        0.6960   -1.7830   26.6410 O.3     1  THR1       -0.2211
      7  CG2        2.5950   -1.4480   28.1270 C.3     1  THR1        0.0376
      8  N          1.4950    1.6790   24.4380 N.am    2  THR2       -0.1952
      9  CA         1.4360    1.8720   22.9860 C.3     2  THR2        0.1897
     10  C          2.5990    1.5190   22.0320 C.2     2  THR2        0.2313
     11  O          2.3780    0.7230   21.1190 O.2     2  THR2       -0.2863
     12  CB         0.9070    3.2730   22.6380 C.3     2  THR2        0.1794
     13  OG1        1.8730    4.2700   22.9900 O.3     2  THR2       -0.2208
     14  CG2       -0.4260    3.5200   23.3770 C.3     2  THR2        0.0378
     15  N         10.1550    1.2570   21.6950 N.3     7  LYS7       -0.1245
     16  CA        10.8280    1.9390   22.7910 C.3     7  LYS7        0.1561
     17  C         11.9830    1.1320   23.3670 C.2     7  LYS7        0.2260
     18  O         13.0520    1.6650   23.6540 O.2     7  LYS7       -0.2867
     19  CB         9.8320    2.2510   23.8920 C.3     7  LYS7        0.0271
     20  CG         8.9200    3.4070   23.5930 C.3     7  LYS7        0.0035
     21  CD         7.5430    3.0900   24.1090 C.3     7  LYS7        0.0206
     22  CE         6.6700    4.3310   24.2010 C.3     7  LYS7        0.1093
     23  NZ         5.2160    3.9640   24.1880 N.3     7  LYS7       -0.1314
     24  N         14.7870    1.3200   20.8470 N.3    10  LEU10      -0.1231
     25  CA        15.4580    2.6150   20.8820 C.3    10  LEU10       0.1693
     26  C         16.2950    2.7640   22.1520 C.2    10  LEU10       0.2591
     27  O         17.4710    3.1360   22.0900 O.2    10  LEU10      -0.2718
     28  CB        14.4360    3.7520   20.8190 C.3    10  LEU10       0.0284
     29  CG        14.7890    5.0470   20.0620 C.3    10  LEU10       0.0019
     30  CD1       14.1440    6.2190   20.7790 C.3    10  LEU10       0.0001
     31  CD2       16.2980    5.2630   19.9640 C.3    10  LEU10       0.0001
     32  N         15.6870    2.4780   23.3030 N.am   11  ILE11      -0.1980
     33  CA        16.3750    2.5860   24.5970 C.3    11  ILE11       0.1595
     34  C         17.5840    1.6730   24.6080 C.2    11  ILE11       0.2287
     35  O         18.6890    2.0820   24.9650 O.2    11  ILE11      -0.2864
     36  CB        15.4310    2.2080   25.7850 C.3    11  ILE11       0.0276
     37  CG1       14.3120    3.2530   25.9070 C.3    11  ILE11       0.0022
     38  CG2       16.2230    2.1150   27.0960 C.3    11  ILE11       0.0022
     39  CD1       13.1530    2.8140   26.7920 C.3    11  ILE11       0.0001
     40  N         20.3180    3.0510   22.3400 N.3    14  ILE14      -0.1245
     41  CA        21.0550    4.1390   22.9670 C.3    14  ILE14       0.1561
     42  C         21.9790    3.6300   24.0630 C.2    14  ILE14       0.2260
     43  O         23.1090    4.0970   24.1980 O.2    14  ILE14      -0.2867
     44  CB        20.1010    5.1840   23.5880 C.3    14  ILE14       0.0252
     45  CG1       19.4150    5.9790   22.4760 C.3    14  ILE14       0.0019
     46  CG2       20.8740    6.1020   24.5460 C.3    14  ILE14       0.0019
     47  CD1       18.3660    6.9410   22.9740 C.3    14  ILE14       0.0001
     48  N         26.0280    3.7730   23.5010 N.3    18  SER18      -0.1217
     49  CA        26.7000    4.6970   24.4190 C.3    18  SER18       0.1889
     50  C         27.8280    3.9830   25.1680 C.2    18  SER18       0.2288
     51  O         28.9100    4.5470   25.3640 O.2    18  SER18      -0.2866
     52  CB        25.7150    5.2790   25.4230 C.3    18  SER18       0.2089
     53  OG        24.8190    6.1580   24.7780 O.3    18  SER18      -0.2183
     54  N         30.8940    3.4510   22.9260 N.3    21  LEU21      -0.1231
     55  CA        31.6130    4.7120   22.7740 C.3    21  LEU21       0.1693
     56  C         32.4760    4.9430   24.0240 C.2    21  LEU21       0.2591
     57  O         33.6890    5.1610   23.9220 O.2    21  LEU21      -0.2718
     58  CB        30.6320    5.8790   22.6010 C.3    21  LEU21       0.0284
     59  CG        30.9940    7.0130   21.6280 C.3    21  LEU21       0.0019
     60  CD1       30.0080    8.1780   21.8060 C.3    21  LEU21       0.0001
     61  CD2       32.4260    7.4780   21.8440 C.3    21  LEU21       0.0001
     62  N         31.8500    4.8910   25.2010 N.am   22  LEU22      -0.1980
     63  CA        32.5670    5.0860   26.4650 C.3    22  LEU22       0.1596
     64  C         33.7070    4.0820   26.6300 C.2    22  LEU22       0.2287
     65  O         34.8150    4.4590   26.9790 O.2    22  LEU22      -0.2864
     66  CB        31.5950    4.9950   27.6420 C.3    22  LEU22       0.0297
     67  CG        30.5240    6.0940   27.6060 C.3    22  LEU22       0.0022
     68  CD1       29.4830    5.8240   28.6840 C.3    22  LEU22       0.0001
     69  CD2       31.1740    7.4710   27.7710 C.3    22  LEU22       0.0001
     70  N         -0.7600   11.7500   27.0980 N.3   441  SER441     -0.1202
     71  CA        -0.7520   10.5980   27.9560 C.3   441  SER441      0.2020
     72  C          0.4670    9.6980   27.7700 C.2   441  SER441      0.2619
     73  O          1.2110    9.4230   28.7160 O.2   441  SER441     -0.2717
     74  CB        -2.0180    9.8140   27.7010 C.3   441  SER441      0.2103
     75  OG        -1.9870    8.6320   28.4540 O.3   441  SER441     -0.2182
     76  N          0.6400    9.2350   26.5370 N.am  442  ASP442     -0.1959
     77  CA         1.7580    8.3820   26.1230 C.3   442  ASP442      0.1840
     78  C          3.0490    9.1400   26.3690 C.2   442  ASP442      0.2622
     79  O          3.3510   10.0890   25.6480 O.2   442  ASP442     -0.2715
     80  CB         1.6440    8.1030   24.6320 C.3   442  ASP442      0.1450
     81  CG         2.7300    7.1840   24.1100 C.2   442  ASP442      0.3671
     82  OD1        3.7680    6.9680   24.7780 O.co2 442  ASP442     -0.2456
     83  OD2        2.5200    6.6850   22.9920 O.co2 442  ASP442     -0.2456
     84  N          3.8420    8.7030   27.3450 N.am  443  LYS443     -0.1963
     85  CA         5.0980    9.3810   27.6900 C.3   443  LYS443      0.1728
     86  C          6.1620    9.2610   26.6180 C.2   443  LYS443      0.2616
     87  O          7.2440    9.8160   26.7330 O.2   443  LYS443     -0.2715
     88  CB         5.6850    8.8190   28.9770 C.3   443  LYS443      0.0311
     89  CG         4.9790    9.1130   30.2480 C.3   443  LYS443      0.0038
     90  CD         5.5540    8.1180   31.2450 C.3   443  LYS443      0.0206
     91  CE         4.8250    8.0980   32.5730 C.3   443  LYS443      0.1093
     92  NZ         5.1600    6.8750   33.3960 N.3   443  LYS443     -0.1314
     93  N          5.8430    8.5380   25.5590 N.am  444  GLY444     -0.1955
     94  CA         6.7700    8.3700   24.4670 C.3   444  GLY444      0.1869
     95  C          6.1280    8.8920   23.1990 C.2   444  GLY444      0.2309
     96  O          6.5010    8.5070   22.0980 O.2   444  GLY444     -0.2863
     97  N          8.7520   13.2600   22.8140 N.3   449  LEU449     -0.1245
     98  CA         9.9330   13.0830   21.9750 C.3   449  LEU449      0.1561
     99  C         10.4500   14.4740   21.6080 C.2   449  LEU449      0.2260
    100  O         11.6560   14.7140   21.5790 O.2   449  LEU449     -0.2867
    101  CB         9.5750   12.2850   20.7170 C.3   449  LEU449      0.0270
    102  CG         9.3030   10.7960   20.9510 C.3   449  LEU449      0.0019
    103  CD1        8.6940   10.1800   19.7080 C.3   449  LEU449      0.0001
    104  CD2       10.5780   10.0870   21.3200 C.3   449  LEU449      0.0001
    105  N         12.1800   15.6510   24.8970 N.3   452  TYR452     -0.1227
    106  CA        13.3990   14.9340   25.2550 C.3   452  TYR452      0.1736
    107  C         14.5650   15.3730   24.3710 C.2   452  TYR452      0.2596
    108  O         15.6710   15.6310   24.8650 O.2   452  TYR452     -0.2718
    109  CB        13.2060   13.4220   25.1280 C.3   452  TYR452      0.0548
    110  CG        12.1700   12.8610   26.0690 C.ar  452  TYR452     -0.0200
    111  CD1       11.9800   13.4160   27.3370 C.ar  452  TYR452     -0.0009
    112  CD2       11.3940   11.7540   25.7080 C.ar  452  TYR452     -0.0009
    113  CE1       11.0450   12.8860   28.2260 C.ar  452  TYR452      0.0417
    114  CE2       10.4540   11.2140   26.5900 C.ar  452  TYR452      0.0417
    115  CZ        10.2870   11.7870   27.8460 C.ar  452  TYR452      0.1957
    116  OH         9.3750   11.2550   28.7280 O.3   452  TYR452     -0.2866
    117  N         14.3070   15.4630   23.0640 N.am  453  SER453     -0.1952
    118  CA        15.3310   15.8680   22.1050 C.3   453  SER453      0.1924
    119  C         15.7360   17.3220   22.3060 C.2   453  SER453      0.2314
    120  O         16.9060   17.6690   22.1800 O.2   453  SER453     -0.2863
    121  CB        14.8420   15.6530   20.6640 C.3   453  SER453      0.2116
    122  OG        13.7320   16.4730   20.3490 O.3   453  SER453     -0.2180
    123  N         15.9710   18.8850   25.0040 N.3   455  ILE455     -0.1231
    124  CA        16.9100   19.0420   26.1040 C.3   455  ILE455      0.1692
    125  C         18.3270   18.5640   25.8050 C.2   455  ILE455      0.2591
    126  O         19.2860   18.9790   26.4660 O.2   455  ILE455     -0.2718
    127  CB        16.3900   18.3660   27.3970 C.3   455  ILE455      0.0266
    128  CG1       17.2900   17.2070   27.8080 C.3   455  ILE455      0.0019
    129  CG2       14.9930   17.8260   27.1860 C.3   455  ILE455      0.0020
    130  CD1       16.7510   16.4790   29.0230 C.3   455  ILE455      0.0001
    131  N         18.4610   17.6990   24.8040 N.am  456  ALA456     -0.1980
    132  CA        19.7670   17.1810   24.4240 C.3   456  ALA456      0.1597
    133  C         20.5920   18.3250   23.8530 C.2   456  ALA456      0.2287
    134  O         21.8190   18.2640   23.8390 O.2   456  ALA456     -0.2864
    135  CB        19.6240   16.0760   23.3990 C.3   456  ALA456      0.0319
    136  N         22.3310   20.1050   27.0720 N.3   459  PHE459     -0.1227
    137  CA        23.0360   19.0210   27.7440 C.3   459  PHE459      0.1736
    138  C         24.2760   18.5060   27.0190 C.2   459  PHE459      0.2595
    139  O         25.3890   18.5550   27.5480 O.2   459  PHE459     -0.2718
    140  CB        22.0870   17.8430   27.9890 C.3   459  PHE459      0.0547
    141  CG        22.7910   16.5710   28.3960 C.ar  459  PHE459     -0.0202
    142  CD1       23.4710   16.4890   29.6110 C.ar  459  PHE459     -0.0042
    143  CD2       22.8020   15.4650   27.5480 C.ar  459  PHE459     -0.0042
    144  CE1       24.1540   15.3250   29.9760 C.ar  459  PHE459     -0.0003
    145  CE2       23.4820   14.2970   27.9010 C.ar  459  PHE459     -0.0003
    146  CZ        24.1580   14.2280   29.1180 C.ar  459  PHE459     -0.0000
    147  N         24.0800   18.0050   25.8090 N.am  460  PHE460     -0.1976
    148  CA        25.1800   17.4400   25.0560 C.3   460  PHE460      0.1639
    149  C         26.3830   18.3260   24.7990 C.2   460  PHE460      0.2290
    150  O         27.4590   17.8110   24.5110 O.2   460  PHE460     -0.2864
    151  CB        24.6660   16.8800   23.7360 C.3   460  PHE460      0.0560
    152  CG        24.9080   15.4170   23.5850 C.ar  460  PHE460     -0.0200
    153  CD1       26.1750   14.9410   23.2630 C.ar  460  PHE460     -0.0042
    154  CD2       23.8860   14.5060   23.8270 C.ar  460  PHE460     -0.0042
    155  CE1       26.4260   13.5710   23.1870 C.ar  460  PHE460     -0.0003
    156  CE2       24.1210   13.1350   23.7540 C.ar  460  PHE460     -0.0003
    157  CZ        25.3990   12.6660   23.4330 C.ar  460  PHE460     -0.0000
    158  N         29.8430   18.1430   27.2180 N.3   463  PHE463     -0.1241
    159  CA        31.0180   17.2810   27.0550 C.3   463  PHE463      0.1605
    160  C         32.2420   18.0590   26.5520 C.2   463  PHE463      0.2264
    161  O         33.3810   17.5860   26.6330 O.2   463  PHE463     -0.2867
    162  CB        30.7060   16.1340   26.0980 C.3   463  PHE463      0.0534
    163  CG        29.7790   15.1060   26.6740 C.ar  463  PHE463     -0.0203
    164  CD1       30.2190   14.2350   27.6700 C.ar  463  PHE463     -0.0042
    165  CD2       28.4500   15.0370   26.2600 C.ar  463  PHE463     -0.0042
    166  CE1       29.3470   13.3110   28.2490 C.ar  463  PHE463     -0.0003
    167  CE2       27.5740   14.1200   26.8300 C.ar  463  PHE463     -0.0003
    168  CZ        28.0230   13.2560   27.8270 C.ar  463  PHE463     -0.0000
    169  N         32.5420   14.6900   19.9180 N.3   482  TRP482     -0.1241
    170  CA        31.2270   14.4990   20.5240 C.3   482  TRP482      0.1605
    171  C         30.4080   15.7450   20.1840 C.2   482  TRP482      0.2264
    172  O         29.1880   15.6920   20.0700 O.2   482  TRP482     -0.2867
    173  CB        31.3290   14.3770   22.0520 C.3   482  TRP482      0.0550
    174  CG        31.6830   13.0160   22.5560 C.ar  482  TRP482      0.0003
    175  CD1       32.7210   12.2380   22.1460 C.ar  482  TRP482      0.0946
    176  CD2       31.0040   12.2730   23.5780 C.ar  482  TRP482      0.0152
    177  NE1       32.7350   11.0530   22.8440 N.ar  482  TRP482     -0.2442
    178  CE2       31.6910   11.0490   23.7320 C.ar  482  TRP482      0.0810
    179  CE3       29.8820   12.5230   24.3820 C.ar  482  TRP482      0.0012
    180  CZ2       31.2920   10.0730   24.6610 C.ar  482  TRP482      0.0191
    181  CZ3       29.4900   11.5540   25.3020 C.ar  482  TRP482      0.0001
    182  CH2       30.1950   10.3460   25.4310 C.ar  482  TRP482      0.0015
    183  N         28.4830   14.3060   17.0580 N.3   486  LEU486     -0.1245
    184  CA        27.2930   13.8930   17.8010 C.3   486  LEU486      0.1561
    185  C         26.3260   15.0330   18.1070 C.2   486  LEU486      0.2260
    186  O         25.1180   14.8920   17.9180 O.2   486  LEU486     -0.2867
    187  CB        27.6880   13.2240   19.1230 C.3   486  LEU486      0.0270
    188  CG        28.3060   11.8240   19.2040 C.3   486  LEU486      0.0019
    189  CD1       28.6960   11.5430   20.6470 C.3   486  LEU486      0.0001
    190  CD2       27.3190   10.7770   18.7260 C.3   486  LEU486      0.0001
    191  N         17.7640   14.9800   15.0280 N.3   494  VAL494     -0.1245
    192  CA        16.8120   14.4490   15.9820 C.3   494  VAL494      0.1561
    193  C         15.7750   15.4960   16.3550 C.2   494  VAL494      0.2260
    194  O         14.5800   15.2620   16.1930 O.2   494  VAL494     -0.2867
    195  CB        17.5080   13.9140   17.2510 C.3   494  VAL494      0.0252
    196  CG1       16.4690   13.2760   18.1750 C.3   494  VAL494      0.0019
    197  CG2       18.5540   12.8880   16.8750 C.3   494  VAL494      0.0019
    198  N         10.6640    6.6960   15.8640 N.3   520  TYR520     -0.1241
    199  CA        11.3300    5.6680   16.6500 C.3   520  TYR520      0.1605
    200  C         12.3160    4.8650   15.8170 C.2   520  TYR520      0.2264
    201  O         13.4750    4.6880   16.2010 O.2   520  TYR520     -0.2867
    202  CB        10.2880    4.7520   17.3020 C.3   520  TYR520      0.0534
    203  CG         9.8280    5.2510   18.6620 C.ar  520  TYR520     -0.0201
    204  CD1       10.6590    5.1500   19.7780 C.ar  520  TYR520     -0.0009
    205  CD2        8.5730    5.8470   18.8310 C.ar  520  TYR520     -0.0009
    206  CE1       10.2590    5.6280   21.0230 C.ar  520  TYR520      0.0417
    207  CE2        8.1620    6.3280   20.0750 C.ar  520  TYR520      0.0417
    208  CZ         9.0120    6.2160   21.1640 C.ar  520  TYR520      0.1957
    209  OH         8.6320    6.7130   22.3930 O.3   520  TYR520     -0.2866
    210  N         15.3120    7.1210   14.7450 N.3   523  PHE523     -0.1241
    211  CA        16.2100    7.4140   15.8380 C.3   523  PHE523      0.1605
    212  C         17.0540    6.1980   16.1460 C.2   523  PHE523      0.2264
    213  O         18.2690    6.3260   16.3110 O.2   523  PHE523     -0.2867
    214  CB        15.4410    7.9370   17.0790 C.3   523  PHE523      0.0534
    215  CG        14.8600    9.3110   16.8880 C.ar  523  PHE523     -0.0203
    216  CD1       15.1560   10.0370   15.7370 C.ar  523  PHE523     -0.0042
    217  CD2       14.0130    9.8770   17.8290 C.ar  523  PHE523     -0.0042
    218  CE1       14.6120   11.3110   15.5240 C.ar  523  PHE523     -0.0003
    219  CE2       13.4610   11.1510   17.6270 C.ar  523  PHE523     -0.0003
    220  CZ        13.7590   11.8660   16.4760 C.ar  523  PHE523     -0.0000
    221  N         20.8660    6.5710   15.7180 N.3   527  LEU527     -0.1245
    222  CA        21.7830    6.4370   16.8510 C.3   527  LEU527      0.1561
    223  C         22.5030    5.0950   16.7980 C.2   527  LEU527      0.2260
    224  O         23.6350    4.9670   17.2670 O.2   527  LEU527     -0.2867
    225  CB        21.0440    6.5560   18.1870 C.3   527  LEU527      0.0270
    226  CG        20.6470    7.9290   18.7480 C.3   527  LEU527      0.0019
    227  CD1       21.3900    9.0560   18.0370 C.3   527  LEU527      0.0001
    228  CD2       19.1660    8.1010   18.6160 C.3   527  LEU527      0.0001
    229  N         26.2820    6.9570   16.6510 N.3   531  VAL531     -0.1245
    230  CA        26.9450    7.1240   17.9270 C.3   531  VAL531      0.1561
    231  C         28.3380    6.5070   17.8610 C.2   531  VAL531      0.2260
    232  O         29.3100    7.1370   18.2660 O.2   531  VAL531     -0.2867
    233  CB        26.1280    6.4650   19.0700 C.3   531  VAL531      0.0252
    234  CG1       26.9530    6.3740   20.3610 C.3   531  VAL531      0.0019
    235  CG2       24.8710    7.2800   19.3150 C.3   531  VAL531      0.0019
@<TRIPOS>BOND
     1   210   211    1
     2   191   192    1
     3   218   216   ar
     4   218   220   ar
     5   221   222    1
     6   216   215   ar
     7   200   201    2
     8   200   199    1
     9   211   212    1
    10   211   214    1
    11   198   199    1
    12   192   193    1
    13   192   195    1
    14   212   213    2
    15   194   193    2
    16   220   219   ar
    17   199   202    1
    18   229   230    1
    19   223   222    1
    20   223   224    2
    21   222   225    1
    22   197   195    1
    23   215   214    1
    24   215   217   ar
    25   183   184    1
    26   195   196    1
    27   202   203    1
    28   219   217   ar
    29   184   185    1
    30   184   187    1
    31   231   230    1
    32   231   232    2
    33   186   185    2
    34   230   233    1
    35   227   226    1
    36   225   226    1
    37   228   226    1
    38   203   205   ar
    39   203   204   ar
    40   190   188    1
    41   205   207   ar
    42   233   235    1
    43   233   234    1
    44   187   188    1
    45   188   189    1
    46   103   102    1
    47   204   206   ar
    48   169   170    1
    49    31    29    1
    50    29    30    1
    51    29    28    1
    52   172   171    2
    53   207   208   ar
    54   171   170    1
    55   122   121    1
    56   170   173    1
    57   121   118    1
    58   101   102    1
    59   101    98    1
    60    28    25    1
    61    24    25    1
    62    25    26    1
    63   102   104    1
    64   206   208   ar
    65    11    10    2
    66   208   209    1
    67   100    99    2
    68    99    98    1
    69    59    60    1
    70    59    61    1
    71    59    58    1
    72    15    16    1
    73    98    97    1
    74    10     9    1
    75   173   174    1
    76    27    26    2
    77    96    95    2
    78   118   119    1
    79   118   117    1
    80   175   174   ar
    81   175   177   ar
    82    26    32   am
    83   120   119    2
    84    40    41    1
    85    45    47    1
    86    45    44    1
    87   174   176   ar
    88    58    55    1
    89    12     9    1
    90    12    13    1
    91    12    14    1
    92    55    54    1
    93    55    56    1
    94    16    17    1
    95    16    19    1
    96   177   178   ar
    97    41    44    1
    98    41    42    1
    99     9     8    1
   100    83    81   ar
   101   117   107   am
   102   155   153   ar
   103   155   157   ar
   104    95    94    1
   105   153   152   ar
   106    32    33    1
   107    17    18    2
   108   135   132    1
   109   157   156   ar
   110    48    49    1
   111   176   178   ar
   112   176   179   ar
   113   152   151    1
   114   152   154   ar
   115    44    46    1
   116    20    19    1
   117    20    21    1
   118   178   180   ar
   119   151   148    1
   120   156   154   ar
   121   134   133    2
   122   133   132    1
   123    57    56    2
   124    56    62   am
   125    42    43    2
   126    21    22    1
   127    81    80    1
   128    81    82   ar
   129    23    22    1
   130     4     3    2
   131   107   108    2
   132   107   106    1
   133   179   181   ar
   134    49    50    1
   135    49    52    1
   136   132   131    1
   137     8     3   am
   138    94    93    1
   139   150   149    2
   140    33    34    1
   141    33    36    1
   142    34    35    2
   143    80    77    1
   144   180   182   ar
   145    53    52    1
   146   149   148    1
   147   131   125   am
   148   105   106    1
   149     3     2    1
   150   123   124    1
   151   148   147    1
   152   109   106    1
   153   109   110    1
   154    50    51    2
   155    62    63    1
   156   181   182   ar
   157    93    86   am
   158    79    78    2
   159   112   110   ar
   160   112   114   ar
   161    36    37    1
   162    36    38    1
   163   125   124    1
   164   125   126    2
   165   147   138   am
   166    37    39    1
   167   110   111   ar
   168   162   163    1
   169   162   159    1
   170   124   127    1
   171    77    78    1
   172    77    76    1
   173   165   163   ar
   174   165   167   ar
   175    78    84   am
   176     2     5    1
   177     2     1    1
   178    63    64    1
   179    63    66    1
   180    76    72   am
   181   160   161    2
   182   160   159    1
   183   114   115   ar
   184    86    87    2
   185    86    85    1
   186    64    65    2
   187     6     5    1
   188   163   164   ar
   189     5     7    1
   190   167   168   ar
   191   138   139    2
   192   138   137    1
   193   159   158    1
   194   136   137    1
   195    70    71    1
   196   129   127    1
   197   111   113   ar
   198    84    85    1
   199   127   128    1
   200   143   145   ar
   201   143   141   ar
   202    67    66    1
   203    67    69    1
   204    67    68    1
   205   164   166   ar
   206    85    88    1
   207    74    71    1
   208    74    75    1
   209   137   140    1
   210    72    71    1
   211    72    73    2
   212   128   130    1
   213   168   166   ar
   214   115   113   ar
   215   115   116    1
   216   145   146   ar
   217   140   141    1
   218   141   142   ar
   219    88    89    1
   220   146   144   ar
   221   142   144   ar
   222    89    90    1
   223    90    91    1
   224    91    92    1
