@<TRIPOS>MOLECULE
tmp/3aygA07.pdb
 147 140 0 0 0
SMALL
GASTEIGER

@<TRIPOS>ATOM
      1  N         30.1890   35.2640    3.2230 N.3   298  MET298     -0.1230
      2  CA        31.2300   36.2050    2.8190 C.3   298  MET298      0.1702
      3  C         32.6140   35.7570    3.2740 C.2   298  MET298      0.2592
      4  O         33.5760   35.7780    2.4960 O.2   298  MET298     -0.2718
      5  CB        30.9340   37.5900    3.3910 C.3   298  MET298      0.0401
      6  CG        29.8310   38.3380    2.6690 C.3   298  MET298      0.0596
      7  SD        30.2740   38.5900    0.9430 S.3   298  MET298     -0.1393
      8  CE        28.6860   38.9990    0.2530 C.3   298  MET298      0.0692
      9  N         32.7230   35.3700    4.5400 N.am  299  PHE299     -0.1976
     10  CA        34.0070   34.9130    5.0690 C.3   299  PHE299      0.1639
     11  C         34.4520   33.7120    4.2520 C.2   299  PHE299      0.2290
     12  O         35.6480   33.4670    4.0870 O.2   299  PHE299     -0.2864
     13  CB        33.8790   34.5110    6.5360 C.3   299  PHE299      0.0560
     14  CG        33.7760   35.6730    7.4810 C.ar  299  PHE299     -0.0200
     15  CD1       34.8600   36.5260    7.6760 C.ar  299  PHE299     -0.0042
     16  CD2       32.6090   35.8870    8.2100 C.ar  299  PHE299     -0.0042
     17  CE1       34.7810   37.5780    8.5920 C.ar  299  PHE299     -0.0003
     18  CE2       32.5160   36.9340    9.1280 C.ar  299  PHE299     -0.0003
     19  CZ        33.6020   37.7800    9.3190 C.ar  299  PHE299     -0.0000
     20  N         33.7630   33.3310    1.0510 N.3   301  ALA301     -0.1231
     21  CA        34.2460   33.9240   -0.1830 C.3   301  ALA301      0.1694
     22  C         35.6750   34.3950    0.0300 C.2   301  ALA301      0.2591
     23  O         36.5350   34.2560   -0.8490 O.2   301  ALA301     -0.2718
     24  CB        33.3680   35.0940   -0.5730 C.3   301  ALA301      0.0304
     25  N         35.9310   34.9370    1.2120 N.am  302  LEU302     -0.1980
     26  CA        37.2600   35.4340    1.5300 C.3   302  LEU302      0.1596
     27  C         38.2900   34.3130    1.5860 C.2   302  LEU302      0.2287
     28  O         39.3680   34.4100    0.9940 O.2   302  LEU302     -0.2864
     29  CB        37.2260   36.1810    2.8620 C.3   302  LEU302      0.0297
     30  CG        38.5710   36.7390    3.3200 C.3   302  LEU302      0.0022
     31  CD1       39.1770   37.6230    2.2150 C.3   302  LEU302      0.0001
     32  CD2       38.3770   37.5190    4.6020 C.3   302  LEU302      0.0001
     33  N         38.2330   31.3600    0.2260 N.3   304  ALA304     -0.1231
     34  CA        38.4430   30.8060   -1.1120 C.3   304  ALA304      0.1694
     35  C         39.3350   31.7310   -1.9270 C.2   304  ALA304      0.2592
     36  O         40.1080   31.2780   -2.7740 O.2   304  ALA304     -0.2718
     37  CB        37.1120   30.6250   -1.8070 C.3   304  ALA304      0.0304
     38  N         39.2090   33.0310   -1.6730 N.am  305  HIS305     -0.1976
     39  CA        40.0240   34.0270   -2.3510 C.3   305  HIS305      0.1656
     40  C         41.4870   33.8700   -1.9300 C.2   305  HIS305      0.2291
     41  O         42.3830   33.9080   -2.7680 O.2   305  HIS305     -0.2864
     42  CB        39.5470   35.4400   -2.0030 C.3   305  HIS305      0.0771
     43  CG        40.3180   36.5110   -2.7010 C.ar  305  HIS305      0.0820
     44  ND1       40.1060   36.8340   -4.0240 N.ar  305  HIS305     -0.2267
     45  CD2       41.3730   37.2570   -2.2970 C.ar  305  HIS305      0.1154
     46  CE1       40.9990   37.7290   -4.4070 C.ar  305  HIS305      0.1986
     47  NE2       41.7820   38.0010   -3.3770 N.ar  305  HIS305     -0.2212
     48  N         44.1430   31.8980   -3.7210 N.3   308  THR308     -0.1218
     49  CA        44.6650   32.4830   -4.9500 C.3   308  THR308      0.1862
     50  C         45.5420   33.6960   -4.6600 C.2   308  THR308      0.2287
     51  O         46.4930   33.9650   -5.3870 O.2   308  THR308     -0.2866
     52  CB        43.5170   32.8660   -5.9160 C.3   308  THR308      0.1770
     53  OG1       42.7060   33.8900   -5.3380 O.3   308  THR308     -0.2211
     54  CG2       42.6420   31.6540   -6.1850 C.3   308  THR308      0.0375
     55  N         43.8210   40.9020   -0.2350 N.3   313  PHE313     -0.1227
     56  CA        42.5240   40.7600   -0.8420 C.3   313  PHE313      0.1736
     57  C         42.3580   41.7650   -1.9810 C.2   313  PHE313      0.2595
     58  O         41.8490   42.8630   -1.7710 O.2   313  PHE313     -0.2718
     59  CB        41.4340   40.9630    0.1930 C.3   313  PHE313      0.0547
     60  CG        40.0910   40.9820   -0.3980 C.ar  313  PHE313     -0.0202
     61  CD1       39.6470   39.9000   -1.1240 C.ar  313  PHE313     -0.0042
     62  CD2       39.3080   42.1220   -0.3370 C.ar  313  PHE313     -0.0042
     63  CE1       38.4630   39.9560   -1.7820 C.ar  313  PHE313     -0.0003
     64  CE2       38.1040   42.1890   -0.9980 C.ar  313  PHE313     -0.0003
     65  CZ        37.6790   41.1070   -1.7250 C.ar  313  PHE313     -0.0000
     66  N         42.7890   41.3780   -3.1830 N.am  314  PHE314     -0.1976
     67  CA        42.7100   42.2380   -4.3630 C.3   314  PHE314      0.1639
     68  C         43.5730   43.4870   -4.1810 C.2   314  PHE314      0.2290
     69  O         43.1710   44.5880   -4.5570 O.2   314  PHE314     -0.2864
     70  CB        41.2620   42.6620   -4.6240 C.3   314  PHE314      0.0560
     71  CG        40.4200   41.6100   -5.2850 C.ar  314  PHE314     -0.0200
     72  CD1       40.7200   41.1660   -6.5660 C.ar  314  PHE314     -0.0042
     73  CD2       39.3010   41.0940   -4.6420 C.ar  314  PHE314     -0.0042
     74  CE1       39.9110   40.2220   -7.2020 C.ar  314  PHE314     -0.0003
     75  CE2       38.4860   40.1520   -5.2660 C.ar  314  PHE314     -0.0003
     76  CZ        38.7900   39.7140   -6.5500 C.ar  314  PHE314     -0.0000
     77  N         42.5030   44.1270    5.2320 N.3   319  ILE319     -0.1245
     78  CA        41.8160   42.8460    5.1580 C.3   319  ILE319      0.1561
     79  C         42.6520   41.6540    5.6260 C.2   319  ILE319      0.2260
     80  O         42.2350   40.9300    6.5270 O.2   319  ILE319     -0.2867
     81  CB        41.2490   42.6380    3.7360 C.3   319  ILE319      0.0252
     82  CG1       40.1740   43.7110    3.5000 C.3   319  ILE319      0.0019
     83  CG2       40.6840   41.2330    3.5800 C.3   319  ILE319      0.0019
     84  CD1       39.4110   43.6140    2.2180 C.3   319  ILE319      0.0001
     85  N         41.6540   40.6170    9.0900 N.3   323  LEU323     -0.1245
     86  CA        40.9660   39.3680    8.7690 C.3   323  LEU323      0.1561
     87  C         41.7910   38.3220    8.0060 C.2   323  LEU323      0.2260
     88  O         41.4810   37.9910    6.8580 O.2   323  LEU323     -0.2867
     89  CB        39.6840   39.6620    7.9780 C.3   323  LEU323      0.0270
     90  CG        38.6050   40.4690    8.6950 C.3   323  LEU323      0.0019
     91  CD1       37.4670   40.7740    7.7380 C.3   323  LEU323      0.0001
     92  CD2       38.1040   39.6930    9.8950 C.3   323  LEU323      0.0001
     93  N         41.2030   26.3810   -8.5130 N.3   716  LEU716     -0.1231
     94  CA        40.8640   27.2550   -7.3940 C.3   716  LEU716      0.1693
     95  C         40.2190   28.5610   -7.8530 C.2   716  LEU716      0.2591
     96  O         39.2400   29.0060   -7.2690 O.2   716  LEU716     -0.2718
     97  CB        42.1210   27.5570   -6.5630 C.3   716  LEU716      0.0284
     98  CG        42.3710   26.8510   -5.2140 C.3   716  LEU716      0.0019
     99  CD1       41.6010   25.5400   -5.1120 C.3   716  LEU716      0.0001
    100  CD2       43.8800   26.6190   -5.0500 C.3   716  LEU716      0.0001
    101  N         40.7780   29.1650   -8.9000 N.am  717  LEU717     -0.1980
    102  CA        40.2800   30.4210   -9.4580 C.3   717  LEU717      0.1596
    103  C         38.8120   30.3800   -9.9460 C.2   717  LEU717      0.2287
    104  O         38.0480   31.3080   -9.6790 O.2   717  LEU717     -0.2864
    105  CB        41.1810   30.8470  -10.6290 C.3   717  LEU717      0.0297
    106  CG        42.1140   32.0760  -10.6200 C.3   717  LEU717      0.0022
    107  CD1       42.3020   32.6350   -9.2110 C.3   717  LEU717      0.0001
    108  CD2       43.4710   31.6730  -11.2400 C.3   717  LEU717      0.0001
    109  N         36.3770   28.9010   -8.9670 N.3   719  ARG719     -0.1231
    110  CA        35.3980   28.6290   -7.9340 C.3   719  ARG719      0.1694
    111  C         34.5560   29.8680   -7.7410 C.2   719  ARG719      0.2591
    112  O         33.4520   29.8200   -7.1950 O.2   719  ARG719     -0.2718
    113  CB        36.1170   28.3110   -6.6720 C.3   719  ARG719      0.0321
    114  CG        35.2840   27.5080   -5.7960 C.3   719  ARG719      0.0489
    115  CD        35.8970   27.5410   -4.4680 C.3   719  ARG719      0.2205
    116  NE        34.8760   27.3330   -3.4520 N.pl3 719  ARG719     -0.0865
    117  CZ        35.1340   26.8550   -2.2420 C.cat 719  ARG719      0.5346
    118  NH1       36.3790   26.5340   -1.9120 N.pl3 719  ARG719      0.1354
    119  NH2       34.1420   26.7200   -1.3690 N.pl3 719  ARG719      0.1354
    120  N         35.1070   30.9840   -8.1840 N.am  720  ALA720     -0.1980
    121  CA        34.4100   32.2360   -8.0410 C.3   720  ALA720      0.1597
    122  C         33.0860   32.2200   -8.7800 C.2   720  ALA720      0.2287
    123  O         32.1320   32.8190   -8.3070 O.2   720  ALA720     -0.2864
    124  CB        35.2720   33.3550   -8.5410 C.3   720  ALA720      0.0319
    125  N         30.7080   30.2650   -6.5330 N.3   723  ASP723     -0.1225
    126  CA        30.6810   30.9010   -5.2140 C.3   723  ASP723      0.1805
    127  C         29.8590   32.1690   -5.2620 C.2   723  ASP723      0.2598
    128  O         29.2090   32.5440   -4.2800 O.2   723  ASP723     -0.2718
    129  CB        32.0790   31.2570   -4.7120 C.3   723  ASP723      0.1424
    130  CG        32.8160   30.0600   -4.1730 C.2   723  ASP723      0.3668
    131  OD1       32.1450   29.0920   -3.7580 O.co2 723  ASP723     -0.2456
    132  OD2       34.0590   30.0820   -4.1490 O.co2 723  ASP723     -0.2456
    133  N         29.8950   32.8290   -6.4120 N.am  724  THR724     -0.1953
    134  CA        29.1560   34.0620   -6.6150 C.3   724  THR724      0.1897
    135  C         27.6940   33.6860   -6.7580 C.2   724  THR724      0.2313
    136  O         26.8150   34.3010   -6.1500 O.2   724  THR724     -0.2863
    137  CB        29.6540   34.7830   -7.8850 C.3   724  THR724      0.1794
    138  OG1       31.0320   35.1520   -7.7110 O.3   724  THR724     -0.2208
    139  CG2       28.8420   36.0380   -8.1460 C.3   724  THR724      0.0378
    140  N         26.4640   33.0030   -3.4800 N.3   727  LEU727     -0.1245
    141  CA        26.3490   34.2680   -2.7850 C.3   727  LEU727      0.1561
    142  C         25.0620   34.9820   -3.1960 C.2   727  LEU727      0.2260
    143  O         24.3490   35.5260   -2.3520 O.2   727  LEU727     -0.2867
    144  CB        27.5480   35.1390   -3.1100 C.3   727  LEU727      0.0270
    145  CG        28.0000   36.0770   -1.9930 C.3   727  LEU727      0.0019
    146  CD1       28.9430   37.1230   -2.5760 C.3   727  LEU727      0.0001
    147  CD2       26.7860   36.7480   -1.3530 C.3   727  LEU727      0.0001
@<TRIPOS>BOND
     1   108   106    1
     2   105   106    1
     3   105   102    1
     4   106   107    1
     5   103   104    2
     6   103   102    1
     7   102   101    1
     8   109   110    1
     9   101    95   am
    10   122   123    2
    11   122   121    1
    12   124   121    1
    13    93    94    1
    14   120   121    1
    15   120   111   am
    16   139   137    1
    17   110   111    1
    18   110   113    1
    19   137   138    1
    20   137   134    1
    21    95    94    1
    22    95    96    2
    23   111   112    2
    24    94    97    1
    25    74    72   ar
    26    74    76   ar
    27   135   134    1
    28   135   136    2
    29   113   114    1
    30   134   133    1
    31    72    71   ar
    32    97    98    1
    33    76    75   ar
    34   125   126    1
    35   133   127   am
    36    54    52    1
    37    52    53    1
    38    52    49    1
    39   114   115    1
    40    51    50    2
    41    71    73   ar
    42    71    70    1
    43    75    73   ar
    44   127   126    1
    45   127   128    2
    46   126   129    1
    47    98    99    1
    48    98   100    1
    49    49    50    1
    50    49    48    1
    51   129   130    1
    52    70    67    1
    53    69    68    2
    54   115   116    1
    55    46    44   ar
    56    46    47   ar
    57    67    68    1
    58    67    66    1
    59   130   132   ar
    60   130   131   ar
    61    44    43   ar
    62   140   141    1
    63   116   117    2
    64    47    45   ar
    65   142   141    1
    66   142   143    2
    67    66    57   am
    68   144   141    1
    69   144   145    1
    70    36    35    2
    71    41    40    2
    72    43    45   ar
    73    43    42    1
    74   146   145    1
    75    39    42    1
    76    39    40    1
    77    39    38    1
    78   117   118    1
    79   117   119    1
    80   145   147    1
    81    57    58    2
    82    57    56    1
    83    35    38   am
    84    35    34    1
    85    37    34    1
    86    63    65   ar
    87    63    61   ar
    88    65    64   ar
    89    61    60   ar
    90    34    33    1
    91    64    62   ar
    92    23    22    2
    93    56    55    1
    94    56    59    1
    95    24    21    1
    96    60    62   ar
    97    60    59    1
    98    21    22    1
    99    21    20    1
   100    22    25   am
   101     8     7    1
   102     7     6    1
   103    28    27    2
   104    25    26    1
   105    26    27    1
   106    26    29    1
   107    31    30    1
   108    84    82    1
   109     4     3    2
   110     6     5    1
   111     2     1    1
   112     2     3    1
   113     2     5    1
   114    29    30    1
   115     3     9   am
   116    30    32    1
   117    82    81    1
   118    83    81    1
   119    81    78    1
   120    12    11    2
   121    11    10    1
   122     9    10    1
   123    10    13    1
   124    78    77    1
   125    78    79    1
   126    79    80    2
   127    13    14    1
   128    88    87    2
   129    14    15   ar
   130    14    16   ar
   131    15    17   ar
   132    91    90    1
   133    89    90    1
   134    89    86    1
   135    87    86    1
   136    16    18   ar
   137    17    19   ar
   138    90    92    1
   139    86    85    1
   140    18    19   ar
