@<TRIPOS>MOLECULE
tmp/3ayjB01.pdb
 154 149 0 0 0
SMALL
GASTEIGER

@<TRIPOS>ATOM
      1  N         70.0150   33.6940   99.0320 N.3   122  ALA122     -0.1231
      2  CA        68.7340   34.2040   99.4420 C.3   122  ALA122      0.1694
      3  C         68.2310   33.5260  100.7010 C.2   122  ALA122      0.2592
      4  O         68.2990   32.2860  100.8170 O.2   122  ALA122     -0.2718
      5  CB        67.7090   33.9850   98.3320 C.3   122  ALA122      0.0304
      6  N         67.6450   34.3250  101.6160 N.am  123  MET123     -0.1965
      7  CA        67.1730   33.7250  102.8630 C.3   123  MET123      0.1736
      8  C         66.0090   34.4330  103.5340 C.2   123  MET123      0.2616
      9  O         65.3970   33.8180  104.4330 O.2   123  MET123     -0.2715
     10  CB        68.3070   33.6040  103.8980 C.3   123  MET123      0.0427
     11  CG        68.7770   34.9010  104.4790 C.3   123  MET123      0.0599
     12  SD        70.2150   34.6500  105.5520 S.3   123  MET123     -0.1393
     13  CE        70.3600   36.2670  106.3150 C.3   123  MET123      0.0692
     14  N         65.6830   35.6770  103.1810 N.am  124  ARG124     -0.1977
     15  CA        64.6440   36.3910  103.9390 C.3   124  ARG124      0.1597
     16  C         63.7860   37.2400  102.9980 C.2   124  ARG124      0.2287
     17  O         64.2970   37.9700  102.1570 O.2   124  ARG124     -0.2864
     18  CB        65.2680   37.2100  105.0950 C.3   124  ARG124      0.0334
     19  CG        66.3660   38.1860  104.7070 C.3   124  ARG124      0.0492
     20  CD        67.1370   38.6490  105.9310 C.3   124  ARG124      0.2205
     21  NE        68.2150   39.5340  105.5520 N.pl3 124  ARG124     -0.0865
     22  CZ        69.1830   39.8700  106.3710 C.cat 124  ARG124      0.5346
     23  NH1       69.1050   39.5350  107.6660 N.pl3 124  ARG124      0.1354
     24  NH2       70.2390   40.5410  105.9290 N.pl3 124  ARG124      0.1354
     25  N         67.8760   44.7950  109.3630 N.3   294  THR294     -0.1218
     26  CA        68.5600   43.6610  108.8450 C.3   294  THR294      0.1862
     27  C         70.1020   43.7620  109.0670 C.2   294  THR294      0.2287
     28  O         70.8710   43.1380  108.3690 O.2   294  THR294     -0.2866
     29  CB        68.2620   43.3780  107.3900 C.3   294  THR294      0.1770
     30  OG1       68.6240   44.5280  106.5920 O.3   294  THR294     -0.2211
     31  CG2       66.8070   43.0070  107.1790 C.3   294  THR294      0.0375
     32  N         73.7500   49.0710  107.9310 N.3   297  PHE297     -0.1241
     33  CA        73.8760   49.5430  106.5450 C.3   297  PHE297      0.1605
     34  C         75.0640   50.4600  106.3340 C.2   297  PHE297      0.2264
     35  O         75.2490   50.9210  105.2020 O.2   297  PHE297     -0.2867
     36  CB        72.5670   50.1430  106.0110 C.3   297  PHE297      0.0534
     37  CG        71.5910   49.1780  105.3920 C.ar  297  PHE297     -0.0203
     38  CD1       71.5340   47.8530  105.7710 C.ar  297  PHE297     -0.0042
     39  CD2       70.7260   49.6140  104.4280 C.ar  297  PHE297     -0.0042
     40  CE1       70.6360   46.9850  105.1930 C.ar  297  PHE297     -0.0003
     41  CE2       69.8130   48.7200  103.8530 C.ar  297  PHE297     -0.0003
     42  CZ        69.7450   47.4150  104.2280 C.ar  297  PHE297     -0.0000
     43  N         76.7410   49.7400  103.2270 N.3   300  LEU300     -0.1245
     44  CA        75.9060   50.1750  102.0990 C.3   300  LEU300      0.1561
     45  C         75.7670   51.6610  102.0210 C.2   300  LEU300      0.2260
     46  O         74.9740   52.1720  101.2360 O.2   300  LEU300     -0.2867
     47  CB        74.5280   49.5060  102.2170 C.3   300  LEU300      0.0270
     48  CG        74.5440   47.9910  102.4800 C.3   300  LEU300      0.0019
     49  CD1       73.1450   47.4200  102.3930 C.3   300  LEU300      0.0001
     50  CD2       75.4870   47.2210  101.6200 C.3   300  LEU300      0.0001
     51  N         75.3830   53.5730   98.6090 N.3   303  ILE303     -0.1245
     52  CA        74.2200   53.4690   97.7240 C.3   303  ILE303      0.1561
     53  C         73.5770   54.8330   97.6040 C.2   303  ILE303      0.2260
     54  O         73.6180   55.6710   98.4930 O.2   303  ILE303     -0.2867
     55  CB        73.1820   52.4160   98.1200 C.3   303  ILE303      0.0252
     56  CG1       72.3670   52.7820   99.3850 C.3   303  ILE303      0.0019
     57  CG2       73.8630   51.0310   98.2200 C.3   303  ILE303      0.0019
     58  CD1       71.3580   51.7130   99.7600 C.3   303  ILE303      0.0001
     59  N         63.6390   50.7150   99.2070 N.3   311  LEU311     -0.1245
     60  CA        63.5100   49.7550  100.2680 C.3   311  LEU311      0.1561
     61  C         62.6380   50.2690  101.4140 C.2   311  LEU311      0.2260
     62  O         61.8560   49.5080  102.0150 O.2   311  LEU311     -0.2867
     63  CB        64.8850   49.3520  100.8170 C.3   311  LEU311      0.0270
     64  CG        65.8050   48.6830   99.7610 C.3   311  LEU311      0.0019
     65  CD1       67.1360   48.3780  100.4350 C.3   311  LEU311      0.0001
     66  CD2       65.1590   47.4610   99.1800 C.3   311  LEU311      0.0001
     67  N         60.9580   46.9460  103.5590 N.3   316  TYR316     -0.1241
     68  CA        61.7380   45.8000  103.1410 C.3   316  TYR316      0.1605
     69  C         62.0940   44.8740  104.2780 C.2   316  TYR316      0.2264
     70  O         62.3410   43.6790  104.0400 O.2   316  TYR316     -0.2867
     71  CB        63.0280   46.2130  102.4100 C.3   316  TYR316      0.0534
     72  CG        64.1710   46.4620  103.3480 C.ar  316  TYR316     -0.0201
     73  CD1       65.1210   45.4550  103.5690 C.ar  316  TYR316     -0.0009
     74  CD2       64.2840   47.6210  104.1180 C.ar  316  TYR316     -0.0009
     75  CE1       66.0890   45.5630  104.5490 C.ar  316  TYR316      0.0417
     76  CE2       65.2640   47.7070  105.1040 C.ar  316  TYR316      0.0417
     77  CZ        66.1580   46.6690  105.3100 C.ar  316  TYR316      0.1957
     78  OH        67.0470   46.7700  106.3440 O.3   316  TYR316     -0.2866
     79  N         60.2370   40.6330  107.1440 N.3   319  GLU319     -0.1245
     80  CA        60.5600   39.4700  106.3160 C.3   319  GLU319      0.1567
     81  C         60.1910   38.1330  106.9300 C.2   319  GLU319      0.2260
     82  O         60.1110   37.9690  108.1730 O.2   319  GLU319     -0.2867
     83  CB        62.0460   39.4890  106.0150 C.3   319  GLU319      0.0388
     84  CG        62.5120   40.6490  105.2040 C.3   319  GLU319      0.1160
     85  CD        63.9200   41.0490  105.3800 C.2   319  GLU319      0.3649
     86  OE1       64.6790   40.4300  106.1000 O.co2 319  GLU319     -0.2457
     87  OE2       64.3390   42.1100  104.7450 O.co2 319  GLU319     -0.2457
     88  N         77.8020   37.4830  108.2290 N.3   513  TYR513     -0.1241
     89  CA        77.2070   37.7980  106.9300 C.3   513  TYR513      0.1605
     90  C         77.5940   39.2360  106.6620 C.2   513  TYR513      0.2264
     91  O         77.1330   40.1320  107.3580 O.2   513  TYR513     -0.2867
     92  CB        75.6990   37.6080  107.0020 C.3   513  TYR513      0.0534
     93  CG        74.9420   37.9830  105.7570 C.ar  513  TYR513     -0.0201
     94  CD1       73.5790   38.3070  105.8320 C.ar  513  TYR513     -0.0009
     95  CD2       75.5400   38.0490  104.5070 C.ar  513  TYR513     -0.0009
     96  CE1       72.8770   38.6780  104.7010 C.ar  513  TYR513      0.0417
     97  CE2       74.8270   38.4450  103.3850 C.ar  513  TYR513      0.0417
     98  CZ        73.5150   38.7840  103.4850 C.ar  513  TYR513      0.1957
     99  OH        72.8640   39.2590  102.3710 O.3   513  TYR513     -0.2866
    100  N         78.6750   42.5440  103.8550 N.3   515  TRP515     -0.1241
    101  CA        78.5080   43.2720  102.6280 C.3   515  TRP515      0.1605
    102  C         79.6940   44.2100  102.3930 C.2   515  TRP515      0.2264
    103  O         80.2240   44.8040  103.3260 O.2   515  TRP515     -0.2867
    104  CB        77.2500   44.1060  102.6360 C.3   515  TRP515      0.0550
    105  CG        76.0040   43.3320  102.8290 C.ar  515  TRP515      0.0003
    106  CD1       75.5960   42.2120  102.1540 C.ar  515  TRP515      0.0946
    107  CD2       74.9510   43.6090  103.7710 C.ar  515  TRP515      0.0152
    108  NE1       74.3730   41.7890  102.5970 N.ar  515  TRP515     -0.2442
    109  CE2       73.9640   42.6290  103.6000 C.ar  515  TRP515      0.0810
    110  CE3       74.7290   44.6050  104.7140 C.ar  515  TRP515      0.0012
    111  CZ2       72.7870   42.5950  104.3490 C.ar  515  TRP515      0.0191
    112  CZ3       73.5690   44.5990  105.4680 C.ar  515  TRP515      0.0001
    113  CH2       72.6200   43.5960  105.2790 C.ar  515  TRP515      0.0015
    114  N         74.9600   40.7410   94.4930 N.3   594  PHE594     -0.1241
    115  CA        73.7310   41.2750   93.9250 C.3   594  PHE594      0.1605
    116  C         73.9210   42.7480   93.6610 C.2   594  PHE594      0.2264
    117  O         74.7090   43.4340   94.3410 O.2   594  PHE594     -0.2867
    118  CB        72.5360   41.0810   94.8880 C.3   594  PHE594      0.0534
    119  CG        72.8300   41.4740   96.3430 C.ar  594  PHE594     -0.0203
    120  CD1       72.7180   42.7630   96.7580 C.ar  594  PHE594     -0.0042
    121  CD2       73.2700   40.5160   97.2270 C.ar  594  PHE594     -0.0042
    122  CE1       73.0350   43.1080   98.0600 C.ar  594  PHE594     -0.0003
    123  CE2       73.6210   40.8670   98.5140 C.ar  594  PHE594     -0.0003
    124  CZ        73.5100   42.1550   98.9260 C.ar  594  PHE594     -0.0000
    125  N         73.5390   46.6340   93.7890 N.3   596  LEU596     -0.1245
    126  CA        73.0500   47.7840   94.5600 C.3   596  LEU596      0.1561
    127  C         73.5660   49.0380   93.8600 C.2   596  LEU596      0.2260
    128  O         74.7720   49.1400   93.5530 O.2   596  LEU596     -0.2867
    129  CB        73.5630   47.8180   96.0160 C.3   596  LEU596      0.0270
    130  CG        72.9820   46.7470   96.9580 C.3   596  LEU596      0.0019
    131  CD1       73.7020   46.8630   98.3000 C.3   596  LEU596      0.0001
    132  CD2       71.4520   46.8470   97.0750 C.3   596  LEU596      0.0001
    133  N         67.6990   44.8540   93.0470 N.3   635  GLY635     -0.1210
    134  CA        68.8340   43.9910   93.1250 C.3   635  GLY635      0.1956
    135  C         68.9650   43.4500   94.5220 C.2   635  GLY635      0.2612
    136  O         68.7820   44.1680   95.5100 O.2   635  GLY635     -0.2717
    137  N         69.3160   42.1700   94.6460 N.am  636  GLY636     -0.1942
    138  CA        69.4070   41.5290   95.9460 C.3   636  GLY636      0.2014
    139  C         68.1380   40.9620   96.4810 C.2   636  GLY636      0.2638
    140  O         68.1040   40.5230   97.6270 O.2   636  GLY636     -0.2714
    141  N         67.0860   40.8700   95.6340 N.am  637  TRP637     -0.1973
    142  CA        65.8260   40.2610   96.0190 C.3   637  TRP637      0.1640
    143  C         65.3330   39.3810   94.8620 C.2   637  TRP637      0.2290
    144  O         65.3500   39.7610   93.6930 O.2   637  TRP637     -0.2864
    145  CB        64.7800   41.3100   96.3220 C.3   637  TRP637      0.0576
    146  CG        65.2160   42.2940   97.3330 C.ar  637  TRP637      0.0006
    147  CD1       65.8070   43.4910   97.1000 C.ar  637  TRP637      0.0946
    148  CD2       65.2370   42.1400   98.7550 C.ar  637  TRP637      0.0152
    149  NE1       66.1670   44.1150   98.2520 N.ar  637  TRP637     -0.2442
    150  CE2       65.8360   43.3090   99.2990 C.ar  637  TRP637      0.0810
    151  CE3       64.8240   41.1420   99.6170 C.ar  637  TRP637      0.0012
    152  CZ2       66.0410   43.4530  100.6720 C.ar  637  TRP637      0.0191
    153  CZ3       65.0120   41.2800  100.9800 C.ar  637  TRP637      0.0001
    154  CH2       65.6130   42.4470  101.4970 C.ar  637  TRP637      0.0015
@<TRIPOS>BOND
     1   133   134    1
     2   134   135    1
     3   128   127    2
     4   116   115    1
     5   116   117    2
     6   144   143    2
     7   125   126    1
     8   127   126    1
     9   115   114    1
    10   115   118    1
    11   135   137   am
    12   135   136    2
    13   126   129    1
    14   137   138    1
    15   143   142    1
    16   118   119    1
    17   141   142    1
    18   141   139   am
    19   138   139    1
    20   129   130    1
    21   142   145    1
    22   145   146    1
    23   119   120   ar
    24   119   121   ar
    25   139   140    2
    26   120   122   ar
    27   130   132    1
    28   130   131    1
    29   147   146   ar
    30   147   149   ar
    31   121   123   ar
    32   146   148   ar
    33    53    52    1
    34    53    54    2
    35    52    55    1
    36    52    51    1
    37   122   124   ar
    38    55    57    1
    39    55    56    1
    40   149   150   ar
    41     5     2    1
    42   123   124   ar
    43   148   150   ar
    44   148   151   ar
    45     1     2    1
    46    66    64    1
    47    59    60    1
    48   150   152   ar
    49    56    58    1
    50     2     3    1
    51   151   153   ar
    52    64    65    1
    53    64    63    1
    54    60    63    1
    55    60    61    1
    56   152   154   ar
    57     3     4    2
    58     3     6   am
    59   153   154   ar
    60    46    45    2
    61    61    62    2
    62     6     7    1
    63    50    48    1
    64    45    44    1
    65    44    47    1
    66    44    43    1
    67   106   108   ar
    68   106   105   ar
    69    17    16    2
    70    47    48    1
    71    99    98    1
    72   102   101    1
    73   102   103    2
    74    49    48    1
    75    71    68    1
    76    71    72    1
    77   108   109   ar
    78   101   104    1
    79   101   100    1
    80   104   105    1
    81   105   107   ar
    82     7     8    1
    83     7    10    1
    84    16    15    1
    85    68    67    1
    86    68    69    1
    87    14     8   am
    88    14    15    1
    89    72    73   ar
    90    72    74   ar
    91    97    98   ar
    92    97    95   ar
    93    98    96   ar
    94     8     9    2
    95    73    75   ar
    96   109   107   ar
    97   109   111   ar
    98   107   110   ar
    99    41    42   ar
   100    41    39   ar
   101    10    11    1
   102    15    18    1
   103    70    69    2
   104    74    76   ar
   105    42    40   ar
   106   111   113   ar
   107    39    37   ar
   108    11    12    1
   109    95    93   ar
   110    75    77   ar
   111    96    94   ar
   112    19    18    1
   113    19    20    1
   114   110   112   ar
   115    87    85   ar
   116    76    77   ar
   117    40    38   ar
   118    35    34    2
   119    84    85    1
   120    84    83    1
   121   113   112   ar
   122    77    78    1
   123    85    86   ar
   124    37    38   ar
   125    37    36    1
   126    21    20    1
   127    21    22    2
   128    12    13    1
   129    93    94   ar
   130    93    92    1
   131    24    22    1
   132    36    33    1
   133    83    80    1
   134    80    81    1
   135    80    79    1
   136    34    33    1
   137    22    23    1
   138    33    32    1
   139    30    29    1
   140    90    89    1
   141    90    91    2
   142    89    92    1
   143    89    88    1
   144    81    82    2
   145    31    29    1
   146    29    26    1
   147    28    27    2
   148    26    27    1
   149    26    25    1
