@<TRIPOS>MOLECULE
tmp/3aykA00.pdb
 149 149 0 0 0
SMALL
GASTEIGER

@<TRIPOS>ATOM
      1  N          8.1070    0.6340    5.8150 N.3    73  GLY73      -0.1210
      2  CA         6.6400    0.3930    5.7280 C.3    73  GLY73       0.1956
      3  C          6.2670   -0.0140    4.3010 C.2    73  GLY73       0.2612
      4  O          7.0790   -0.5230    3.5540 O.2    73  GLY73      -0.2717
      5  N          5.0380    0.2020    3.9250 N.am   74  ASN74      -0.1960
      6  CA         4.5880   -0.1720    2.5560 C.3    74  ASN74       0.1819
      7  C          5.1090    0.8600    1.5520 C.2    74  ASN74       0.2621
      8  O          5.2120    2.0320    1.8550 O.2    74  ASN74      -0.2715
      9  CB         3.0540   -0.1850    2.4980 C.3    74  ASN74       0.1195
     10  CG         2.4600   -0.5500    3.8680 C.2    74  ASN74       0.2630
     11  OD1        2.9480   -0.1310    4.8980 O.2    74  ASN74      -0.2716
     12  ND2        1.3940   -1.2970    3.9190 N.am   74  ASN74      -0.0877
     13  N          5.4320    0.4400    0.3590 N.am   75  LEU75      -0.1963
     14  CA         5.9380    1.4080   -0.6560 C.3    75  LEU75       0.1728
     15  C          4.7650    1.9150   -1.4980 C.2    75  LEU75       0.2616
     16  O          4.8720    2.8970   -2.2050 O.2    75  LEU75      -0.2715
     17  CB         6.9410    0.7090   -1.5780 C.3    75  LEU75       0.0311
     18  CG         8.0050   -0.0210   -0.7520 C.3    75  LEU75       0.0022
     19  CD1        8.9060   -0.8130   -1.6970 C.3    75  LEU75       0.0001
     20  CD2        8.8600    0.9830    0.0300 C.3    75  LEU75       0.0001
     21  N          3.6470    1.2500   -1.4310 N.am   76  ALA76      -0.1963
     22  CA         2.4690    1.6920   -2.2260 C.3    76  ALA76       0.1728
     23  C          1.2520    0.8650   -1.8210 C.2    76  ALA76       0.2616
     24  O          1.3710   -0.1500   -1.1640 O.2    76  ALA76      -0.2715
     25  CB         2.7470    1.4890   -3.7170 C.3    76  ALA76       0.0334
     26  N          0.0830    1.2780   -2.2170 N.am   77  HIS77      -0.1959
     27  CA        -1.1320    0.4990   -1.8620 C.3    77  HIS77       0.1787
     28  C         -2.2730    0.9100   -2.7870 C.2    77  HIS77       0.2620
     29  O         -2.1130    1.7490   -3.6500 O.2    77  HIS77      -0.2715
     30  CB        -1.5140    0.7490   -0.3990 C.3    77  HIS77       0.0785
     31  CG        -1.8360    2.2010   -0.1850 C.ar   77  HIS77       0.0821
     32  ND1       -2.9780    2.6090    0.4840 N.ar   77  HIS77      -0.2267
     33  CD2       -1.1680    3.3500   -0.5230 C.ar   77  HIS77       0.1154
     34  CE1       -2.9630    3.9520    0.5300 C.ar   77  HIS77       0.1986
     35  NE2       -1.8810    4.4570   -0.0690 N.ar   77  HIS77      -0.2212
     36  N         -3.4190    0.3180   -2.6270 N.am   78  ALA78      -0.1977
     37  CA        -4.5590    0.6670   -3.5130 C.3    78  ALA78       0.1597
     38  C         -5.8600    0.2080   -2.8610 C.2    78  ALA78       0.2287
     39  O         -5.8560   -0.5670   -1.9250 O.2    78  ALA78      -0.2864
     40  CB        -4.3870   -0.0330   -4.8630 C.3    78  ALA78       0.0319
     41  N          7.5520   -1.7100  -12.2950 N.3   108  ARG108     -0.1231
     42  CA         7.3380   -2.9670  -11.5320 C.3   108  ARG108      0.1694
     43  C          6.2400   -2.7800  -10.4760 C.2   108  ARG108      0.2591
     44  O          5.3420   -3.5900  -10.3560 O.2   108  ARG108     -0.2718
     45  CB         8.6440   -3.3250  -10.8510 C.3   108  ARG108      0.0321
     46  CG         8.7110   -4.8180  -10.6020 C.3   108  ARG108      0.0489
     47  CD         9.9800   -5.1130   -9.8170 C.3   108  ARG108      0.2205
     48  NE        10.0220   -6.5550   -9.4910 N.pl3 108  ARG108     -0.0865
     49  CZ        11.1220   -7.0870   -9.0580 C.cat 108  ARG108      0.5346
     50  NH1       12.1960   -6.3570   -8.9330 N.pl3 108  ARG108      0.1354
     51  NH2       11.1490   -8.3470   -8.7520 N.pl3 108  ARG108      0.1354
     52  N          6.2960   -1.7190   -9.7130 N.am  109  VAL109     -0.1980
     53  CA         5.2480   -1.4970   -8.6760 C.3   109  VAL109      0.1595
     54  C          3.9300   -1.2270   -9.4000 C.2   109  VAL109      0.2287
     55  O          2.8760   -1.6630   -8.9810 O.2   109  VAL109     -0.2864
     56  CB         5.6450   -0.3000   -7.7890 C.3   109  VAL109      0.0276
     57  CG1        4.5350    0.0310   -6.7810 C.3   109  VAL109      0.0022
     58  CG2        6.9140   -0.6500   -7.0120 C.3   109  VAL109      0.0022
     59  N          2.3010   -4.4140  -10.1990 N.3   112  HIS112     -0.1226
     60  CA         1.7170   -5.0810   -9.0010 C.3   112  HIS112      0.1752
     61  C          0.4200   -4.3730   -8.5930 C.2   112  HIS112      0.2595
     62  O         -0.5910   -5.0070   -8.3590 O.2   112  HIS112     -0.2718
     63  CB         2.7220   -5.0070   -7.8440 C.3   112  HIS112      0.0759
     64  CG         2.2460   -5.8430   -6.6800 C.ar  112  HIS112      0.0818
     65  ND1        3.0650   -6.7710   -6.0550 N.ar  112  HIS112     -0.2268
     66  CD2        1.0510   -5.8890   -6.0020 C.ar  112  HIS112      0.1154
     67  CE1        2.3600   -7.3270   -5.0510 C.ar  112  HIS112      0.1986
     68  NE2        1.1260   -6.8270   -4.9770 N.ar  112  HIS112     -0.2212
     69  N          0.4320   -3.0710   -8.4980 N.am  113  GLU113     -0.1979
     70  CA        -0.8090   -2.3530   -8.0840 C.3   113  GLU113      0.1602
     71  C         -1.9430   -2.6990   -9.0460 C.2   113  GLU113      0.2287
     72  O         -3.0720   -2.8950   -8.6440 O.2   113  GLU113     -0.2864
     73  CB        -0.5730   -0.8430   -8.1200 C.3   113  GLU113      0.0415
     74  CG         0.5820   -0.4830   -7.1890 C.3   113  GLU113      0.1163
     75  CD         0.1260    0.5780   -6.1860 C.2   113  GLU113      0.3649
     76  OE1       -0.3630    0.1980   -5.1350 O.co2 113  GLU113     -0.2457
     77  OE2        0.2760    1.7510   -6.4850 O.co2 113  GLU113     -0.2457
     78  N         -3.6890   -5.9040   -8.2060 N.3   116  HIS116     -0.1241
     79  CA        -4.6790   -5.7870   -7.0980 C.3   116  HIS116      0.1621
     80  C         -5.9990   -5.2500   -7.6550 C.2   116  HIS116      0.2264
     81  O         -7.0680   -5.6730   -7.2630 O.2   116  HIS116     -0.2867
     82  CB        -4.1490   -4.8360   -6.0210 C.3   116  HIS116      0.0745
     83  CG        -3.1120   -5.5450   -5.1930 C.ar  116  HIS116      0.0817
     84  ND1       -3.2710   -6.8560   -4.7730 N.ar  116  HIS116     -0.2268
     85  CD2       -1.8990   -5.1380   -4.6950 C.ar  116  HIS116      0.1154
     86  CE1       -2.1820   -7.1890   -4.0570 C.ar  116  HIS116      0.1986
     87  NE2       -1.3130   -6.1770   -3.9780 N.ar  116  HIS116     -0.2212
     88  N         -2.2970  -12.0720   -3.5660 N.3   122  HIS122     -0.1241
     89  CA        -0.8320  -12.3300   -3.5140 C.3   122  HIS122      0.1621
     90  C         -0.5620  -13.8170   -3.7480 C.2   122  HIS122      0.2264
     91  O         -1.4170  -14.6520   -3.5320 O.2   122  HIS122     -0.2867
     92  CB        -0.2810  -11.9160   -2.1490 C.3   122  HIS122      0.0745
     93  CG        -0.2790  -10.4160   -2.0430 C.ar  122  HIS122      0.0817
     94  ND1       -1.0760   -9.7370   -1.1340 N.ar  122  HIS122     -0.2268
     95  CD2        0.4180   -9.4490   -2.7260 C.ar  122  HIS122      0.1154
     96  CE1       -0.8400   -8.4210   -1.2920 C.ar  122  HIS122      0.1986
     97  NE2        0.0630   -8.1910   -2.2500 N.ar  122  HIS122     -0.2212
     98  N          5.0960  -11.7990   -9.7150 N.3   129  LEU129     -0.1245
     99  CA         5.3650  -10.3710   -9.4070 C.3   129  LEU129      0.1561
    100  C          4.5530   -9.9730   -8.1800 C.2   129  LEU129      0.2260
    101  O          4.8930   -9.0460   -7.4720 O.2   129  LEU129     -0.2867
    102  CB         4.9720   -9.4870  -10.5990 C.3   129  LEU129      0.0270
    103  CG         5.8310   -9.8220  -11.8310 C.3   129  LEU129      0.0019
    104  CD1        5.1610   -9.2380  -13.0750 C.3   129  LEU129      0.0001
    105  CD2        7.2340   -9.2010  -11.7080 C.3   129  LEU129      0.0001
    106  N          4.6730  -10.4630   -5.3770 N.3   131  TYR131     -0.1227
    107  CA         5.4620  -10.9010   -4.1880 C.3   131  TYR131      0.1725
    108  C          4.9480  -10.1500   -2.9380 C.2   131  TYR131      0.2475
    109  O          4.7180   -8.9590   -3.0020 O.2   131  TYR131     -0.2730
    110  CB         6.9420  -10.5580   -4.4080 C.3   131  TYR131      0.0547
    111  CG         7.7960  -11.4540   -3.5400 C.ar  131  TYR131     -0.0200
    112  CD1        8.0850  -11.0920   -2.2210 C.ar  131  TYR131     -0.0009
    113  CD2        8.2820  -12.6610   -4.0540 C.ar  131  TYR131     -0.0009
    114  CE1        8.8540  -11.9380   -1.4130 C.ar  131  TYR131      0.0417
    115  CE2        9.0580  -13.5040   -3.2500 C.ar  131  TYR131      0.0417
    116  CZ         9.3420  -13.1430   -1.9280 C.ar  131  TYR131      0.1957
    117  OH        10.0990  -13.9770   -1.1310 O.3   131  TYR131     -0.2866
    118  N          4.7590  -10.8100   -1.8050 N.am  132  PRO132     -0.2492
    119  CA         4.2600  -10.1000   -0.5900 C.3   132  PRO132      0.1619
    120  C          5.1050   -8.8680   -0.2260 C.2   132  PRO132      0.2606
    121  O          4.5830   -7.8000    0.0230 O.2   132  PRO132     -0.2715
    122  CB         4.3670  -11.1720    0.4990 C.3   132  PRO132      0.0570
    123  CG         4.8590  -12.4800   -0.1330 C.2   132  PRO132     -0.0077
    124  CD         5.0150  -12.2730   -1.6410 C.2   132  PRO132      0.0634
    125  N          6.4020   -9.0200   -0.1850 N.am  133  SER133     -0.1936
    126  CA         7.2990   -7.8750    0.1690 C.3   133  SER133      0.2055
    127  C          7.9970   -7.3410   -1.0860 C.2   133  SER133      0.2643
    128  O          7.8590   -7.8780   -2.1660 O.2   133  SER133     -0.2714
    129  CB         8.3600   -8.3550    1.1590 C.3   133  SER133      0.2130
    130  OG         9.2760   -9.2080    0.4840 O.3   133  SER133     -0.2179
    131  N          8.7580   -6.2880   -0.9500 N.am  134  TYR134     -0.1959
    132  CA         9.4740   -5.7350   -2.1320 C.3   134  TYR134      0.1771
    133  C         10.7930   -6.4860   -2.2980 C.2   134  TYR134      0.2620
    134  O         11.6600   -6.4280   -1.4480 O.2   134  TYR134     -0.2715
    135  CB         9.7550   -4.2460   -1.9140 C.3   134  TYR134      0.0574
    136  CG        10.5860   -3.7150   -3.0590 C.ar  134  TYR134     -0.0198
    137  CD1        9.9600   -3.2090   -4.2050 C.ar  134  TYR134     -0.0009
    138  CD2       11.9840   -3.7400   -2.9790 C.ar  134  TYR134     -0.0009
    139  CE1       10.7330   -2.7270   -5.2690 C.ar  134  TYR134      0.0417
    140  CE2       12.7560   -3.2600   -4.0440 C.ar  134  TYR134      0.0417
    141  CZ        12.1300   -2.7540   -5.1880 C.ar  134  TYR134      0.1957
    142  OH        12.8910   -2.2880   -6.2380 O.3   134  TYR134     -0.2866
    143  N         10.9450   -7.1910   -3.3870 N.am  135  THR135     -0.1951
    144  CA        12.2010   -7.9580   -3.6200 C.3   135  THR135      0.1897
    145  C         12.7110   -7.6840   -5.0230 C.2   135  THR135      0.2313
    146  O         11.9510   -7.4580   -5.9440 O.2   135  THR135     -0.2863
    147  CB        11.9250   -9.4550   -3.4810 C.3   135  THR135      0.1794
    148  OG1       10.8450   -9.8160   -4.3330 O.3   135  THR135     -0.2208
    149  CG2       11.5660   -9.7790   -2.0350 C.3   135  THR135      0.0378
@<TRIPOS>BOND
     1   104   103    1
     2    41    42    1
     3   103   105    1
     4   103   102    1
     5    42    45    1
     6    42    43    1
     7    45    46    1
     8    46    47    1
     9   102    99    1
    10    43    44    2
    11    43    52   am
    12    59    60    1
    13    47    48    1
    14    98    99    1
    15    52    53    1
    16    48    49    2
    17    99   100    1
    18    54    55    2
    19    54    53    1
    20    49    50    1
    21    49    51    1
    22    71    72    2
    23    71    70    1
    24    60    61    1
    25    60    63    1
    26    53    56    1
    27    61    69   am
    28    61    62    2
    29    69    70    1
    30    78    79    1
    31   100   101    2
    32    73    70    1
    33    73    74    1
    34    63    64    1
    35    56    58    1
    36    56    57    1
    37    80    81    2
    38    80    79    1
    39    74    75    1
    40    79    82    1
    41    64    65   ar
    42    64    66   ar
    43    77    75   ar
    44   142   141    1
    45    75    76   ar
    46    65    67   ar
    47    82    83    1
    48    66    68   ar
    49   146   145    2
    50   106   107    1
    51   139   141   ar
    52   139   137   ar
    53    83    84   ar
    54    83    85   ar
    55   141   140   ar
    56    67    68   ar
    57   145   144    1
    58    40    37    1
    59    84    86   ar
    60    85    87   ar
    61   110   107    1
    62   110   111    1
    63   148   147    1
    64   137   136   ar
    65   107   108    1
    66    86    87   ar
    67   113   111   ar
    68   113   115   ar
    69   140   138   ar
    70    90    91    2
    71    90    89    1
    72    25    22    1
    73    29    28    2
    74   144   147    1
    75   144   143    1
    76    88    89    1
    77   111   112   ar
    78    89    92    1
    79    37    38    1
    80    37    36    1
    81   147   149    1
    82   143   133   am
    83   115   116   ar
    84   136   138   ar
    85   136   135    1
    86   109   108    2
    87   108   118   am
    88    38    39    2
    89    28    36   am
    90    28    27    1
    91    95    97   ar
    92    95    93   ar
    93   133   132    1
    94   133   134    2
    95    97    96   ar
    96    22    23    1
    97    22    21    1
    98   112   114   ar
    99    26    27    1
   100    26    23   am
   101    16    15    2
   102   128   127    2
   103    92    93    1
   104   132   135    1
   105   132   131    1
   106    93    94   ar
   107   116   114   ar
   108   116   117    1
   109    27    30    1
   110    23    24    2
   111   118   124    1
   112   118   119    1
   113    19    18    1
   114   124   123    2
   115    17    18    1
   116    17    14    1
   117    15    21   am
   118    15    14    1
   119    96    94   ar
   120   127   131   am
   121   127   126    1
   122    18    20    1
   123    14    13    1
   124   119   120    1
   125   119   122    1
   126    33    31   ar
   127    33    35   ar
   128    30    31    1
   129   120   125   am
   130   120   121    2
   131   125   126    1
   132    31    32   ar
   133   123   122    1
   134    35    34   ar
   135   126   129    1
   136    13     7   am
   137   130   129    1
   138    32    34   ar
   139     7     8    2
   140     7     6    1
   141     9     6    1
   142     9    10    1
   143     6     5    1
   144     4     3    2
   145    10    12   am
   146    10    11    2
   147     5     3   am
   148     3     2    1
   149     2     1    1
