@<TRIPOS>MOLECULE
tmp/3aylB01.pdb
 141 137 0 0 0
SMALL
GASTEIGER

@<TRIPOS>ATOM
      1  N         67.8810   34.3050  101.6650 N.3   123  MET123     -0.1230
      2  CA        67.3700   33.7060  102.8590 C.3   123  MET123      0.1702
      3  C         66.1870   34.4050  103.5640 C.2   123  MET123      0.2592
      4  O         65.6090   33.7700  104.4440 O.2   123  MET123     -0.2718
      5  CB        68.4950   33.4930  103.9180 C.3   123  MET123      0.0401
      6  CG        68.9560   34.8100  104.5750 C.3   123  MET123      0.0596
      7  SD        70.4110   34.5290  105.6230 S.3   123  MET123     -0.1393
      8  CE        70.6020   36.1590  106.3500 C.3   123  MET123      0.0692
      9  N         65.8590   35.6410  103.2380 N.am  124  ARG124     -0.1980
     10  CA        64.8380   36.3500  103.9690 C.3   124  ARG124      0.1597
     11  C         64.0020   37.1870  103.0060 C.2   124  ARG124      0.2287
     12  O         64.5640   37.8950  102.1610 O.2   124  ARG124     -0.2864
     13  CB        65.4710   37.1810  105.1230 C.3   124  ARG124      0.0334
     14  CG        66.5280   38.1820  104.7140 C.3   124  ARG124      0.0492
     15  CD        67.3090   38.6670  105.9150 C.3   124  ARG124      0.2205
     16  NE        68.3650   39.5690  105.5320 N.pl3 124  ARG124     -0.0865
     17  CZ        69.3410   39.9210  106.3490 C.cat 124  ARG124      0.5346
     18  NH1       69.2870   39.5970  107.6170 N.pl3 124  ARG124      0.1354
     19  NH2       70.3790   40.5880  105.8710 N.pl3 124  ARG124      0.1354
     20  N         68.0550   44.8300  109.4020 N.3   294  THR294     -0.1218
     21  CA        68.7710   43.6860  108.8670 C.3   294  THR294      0.1862
     22  C         70.2700   43.8160  109.0780 C.2   294  THR294      0.2287
     23  O         71.0610   43.2280  108.3480 O.2   294  THR294     -0.2866
     24  CB        68.4240   43.4020  107.4160 C.3   294  THR294      0.1770
     25  OG1       68.7660   44.5590  106.6200 O.3   294  THR294     -0.2211
     26  CG2       66.9740   42.9980  107.2330 C.3   294  THR294      0.0375
     27  N         73.9430   49.1020  107.9350 N.3   297  PHE297     -0.1241
     28  CA        74.0460   49.5970  106.5440 C.3   297  PHE297      0.1605
     29  C         75.2450   50.4970  106.3240 C.2   297  PHE297      0.2264
     30  O         75.4160   50.9180  105.1760 O.2   297  PHE297     -0.2867
     31  CB        72.7540   50.1910  106.0430 C.3   297  PHE297      0.0534
     32  CG        71.7520   49.2230  105.4200 C.ar  297  PHE297     -0.0203
     33  CD1       71.7130   47.8730  105.7540 C.ar  297  PHE297     -0.0042
     34  CD2       70.9000   49.6890  104.4690 C.ar  297  PHE297     -0.0042
     35  CE1       70.7790   47.0220  105.1770 C.ar  297  PHE297     -0.0003
     36  CE2       69.9770   48.8290  103.8760 C.ar  297  PHE297     -0.0003
     37  CZ        69.9160   47.5050  104.2150 C.ar  297  PHE297     -0.0000
     38  N         76.8760   49.7210  103.2190 N.3   300  LEU300     -0.1245
     39  CA        76.0410   50.1360  102.0880 C.3   300  LEU300      0.1561
     40  C         75.9240   51.6490  101.9950 C.2   300  LEU300      0.2260
     41  O         75.1220   52.1320  101.1910 O.2   300  LEU300     -0.2867
     42  CB        74.6650   49.4730  102.1750 C.3   300  LEU300      0.0270
     43  CG        74.6520   47.9750  102.4240 C.3   300  LEU300      0.0019
     44  CD1       73.2190   47.4330  102.3070 C.3   300  LEU300      0.0001
     45  CD2       75.5940   47.2100  101.4970 C.3   300  LEU300      0.0001
     46  N         63.8390   50.7910   99.1760 N.3   311  LEU311     -0.1245
     47  CA        63.7040   49.8340  100.2590 C.3   311  LEU311      0.1561
     48  C         62.8220   50.3430  101.3800 C.2   311  LEU311      0.2260
     49  O         62.0520   49.5770  101.9830 O.2   311  LEU311     -0.2867
     50  CB        65.0710   49.4190  100.7860 C.3   311  LEU311      0.0270
     51  CG        66.0050   48.7500   99.7750 C.3   311  LEU311      0.0019
     52  CD1       67.3380   48.4580  100.4400 C.3   311  LEU311      0.0001
     53  CD2       65.3350   47.5430   99.1120 C.3   311  LEU311      0.0001
     54  N         61.1400   47.0060  103.5410 N.3   316  TYR316     -0.1241
     55  CA        61.9190   45.8310  103.1370 C.3   316  TYR316      0.1605
     56  C         62.2850   44.9430  104.2950 C.2   316  TYR316      0.2264
     57  O         62.5180   43.7350  104.0620 O.2   316  TYR316     -0.2867
     58  CB        63.2070   46.2400  102.4390 C.3   316  TYR316      0.0534
     59  CG        64.3600   46.5070  103.3490 C.ar  316  TYR316     -0.0201
     60  CD1       65.2560   45.4910  103.6230 C.ar  316  TYR316     -0.0009
     61  CD2       64.4710   47.6860  104.1160 C.ar  316  TYR316     -0.0009
     62  CE1       66.2470   45.6160  104.5880 C.ar  316  TYR316      0.0417
     63  CE2       65.4500   47.7820  105.1120 C.ar  316  TYR316      0.0417
     64  CZ        66.3220   46.7500  105.3330 C.ar  316  TYR316      0.1957
     65  OH        67.2290   46.8200  106.3680 O.3   316  TYR316     -0.2866
     66  N         60.4050   40.6310  107.1620 N.3   319  GLU319     -0.1245
     67  CA        60.7590   39.4800  106.3090 C.3   319  GLU319      0.1567
     68  C         60.3770   38.1490  106.9350 C.2   319  GLU319      0.2260
     69  O         60.3010   37.9420  108.1790 O.2   319  GLU319     -0.2867
     70  CB        62.2420   39.5080  106.0540 C.3   319  GLU319      0.0388
     71  CG        62.6700   40.7290  105.2150 C.3   319  GLU319      0.1160
     72  CD        64.0980   41.1220  105.3780 C.2   319  GLU319      0.3649
     73  OE1       64.8370   40.4450  106.0900 O.co2 319  GLU319     -0.2457
     74  OE2       64.5170   42.1630  104.7750 O.co2 319  GLU319     -0.2457
     75  N         77.9590   37.4770  108.1680 N.3   513  TYR513     -0.1241
     76  CA        77.3680   37.7970  106.8870 C.3   513  TYR513      0.1605
     77  C         77.7460   39.2270  106.5800 C.2   513  TYR513      0.2264
     78  O         77.2750   40.1390  107.2580 O.2   513  TYR513     -0.2867
     79  CB        75.8750   37.5980  106.9460 C.3   513  TYR513      0.0534
     80  CG        75.1340   37.9870  105.7080 C.ar  513  TYR513     -0.0201
     81  CD1       73.7700   38.3000  105.7700 C.ar  513  TYR513     -0.0009
     82  CD2       75.7110   38.0380  104.4370 C.ar  513  TYR513     -0.0009
     83  CE1       73.0550   38.6920  104.6490 C.ar  513  TYR513      0.0417
     84  CE2       75.0110   38.4620  103.3250 C.ar  513  TYR513      0.0417
     85  CZ        73.6880   38.7960  103.4240 C.ar  513  TYR513      0.1957
     86  OH        73.0470   39.2870  102.2940 O.3   513  TYR513     -0.2866
     87  N         78.8150   42.5430  103.8210 N.3   515  TRP515     -0.1241
     88  CA        78.6830   43.2700  102.5670 C.3   515  TRP515      0.1605
     89  C         79.8660   44.2300  102.3680 C.2   515  TRP515      0.2264
     90  O         80.3760   44.8180  103.2990 O.2   515  TRP515     -0.2867
     91  CB        77.4320   44.1180  102.6160 C.3   515  TRP515      0.0550
     92  CG        76.1480   43.3640  102.7890 C.ar  515  TRP515      0.0003
     93  CD1       75.7940   42.2550  102.0910 C.ar  515  TRP515      0.0946
     94  CD2       75.0680   43.6390  103.6750 C.ar  515  TRP515      0.0152
     95  NE1       74.5490   41.8260  102.4720 N.ar  515  TRP515     -0.2442
     96  CE2       74.1030   42.6510  103.4710 C.ar  515  TRP515      0.0810
     97  CE3       74.8490   44.6230  104.6310 C.ar  515  TRP515      0.0012
     98  CZ2       72.9130   42.6170  104.1890 C.ar  515  TRP515      0.0191
     99  CZ3       73.6780   44.5750  105.3580 C.ar  515  TRP515      0.0001
    100  CH2       72.7270   43.6000  105.1420 C.ar  515  TRP515      0.0015
    101  N         75.1370   40.7300   94.4390 N.3   594  PHE594     -0.1241
    102  CA        73.9210   41.2910   93.8960 C.3   594  PHE594      0.1605
    103  C         74.1330   42.7440   93.6020 C.2   594  PHE594      0.2264
    104  O         74.9430   43.4420   94.2660 O.2   594  PHE594     -0.2867
    105  CB        72.7200   41.1310   94.8900 C.3   594  PHE594      0.0534
    106  CG        73.0650   41.4640   96.3220 C.ar  594  PHE594     -0.0203
    107  CD1       73.0950   42.7890   96.7380 C.ar  594  PHE594     -0.0042
    108  CD2       73.4600   40.5040   97.2060 C.ar  594  PHE594     -0.0042
    109  CE1       73.5080   43.1140   98.0150 C.ar  594  PHE594     -0.0003
    110  CE2       73.8710   40.8460   98.4890 C.ar  594  PHE594     -0.0003
    111  CZ        73.9180   42.1560   98.8330 C.ar  594  PHE594     -0.0000
    112  N         73.7450   46.6570   93.7240 N.3   596  LEU596     -0.1245
    113  CA        73.2810   47.8290   94.4920 C.3   596  LEU596      0.1561
    114  C         73.8020   49.0770   93.7960 C.2   596  LEU596      0.2260
    115  O         74.9970   49.1510   93.5110 O.2   596  LEU596     -0.2867
    116  CB        73.7450   47.8150   95.9580 C.3   596  LEU596      0.0270
    117  CG        73.0660   46.8570   96.8990 C.3   596  LEU596      0.0019
    118  CD1       73.7800   46.8780   98.2690 C.3   596  LEU596      0.0001
    119  CD2       71.5460   47.1690   97.0210 C.3   596  LEU596      0.0001
    120  N         67.9110   44.8800   93.0410 N.3   635  GLY635     -0.1210
    121  CA        69.0720   44.0000   93.1370 C.3   635  GLY635      0.1956
    122  C         69.1900   43.4800   94.5570 C.2   635  GLY635      0.2612
    123  O         69.0010   44.2120   95.5260 O.2   635  GLY635     -0.2717
    124  N         69.5490   42.1950   94.6730 N.am  636  GLY636     -0.1942
    125  CA        69.6280   41.5650   95.9830 C.3   636  GLY636      0.2014
    126  C         68.3510   41.0050   96.5020 C.2   636  GLY636      0.2638
    127  O         68.3090   40.6040   97.6700 O.2   636  GLY636     -0.2714
    128  N         67.3240   40.9070   95.6520 N.am  637  TRP637     -0.1973
    129  CA        66.0480   40.3000   96.0360 C.3   637  TRP637      0.1640
    130  C         65.5620   39.3970   94.9190 C.2   637  TRP637      0.2290
    131  O         65.5800   39.8100   93.7570 O.2   637  TRP637     -0.2864
    132  CB        64.9840   41.3340   96.3400 C.3   637  TRP637      0.0576
    133  CG        65.4350   42.3320   97.3680 C.ar  637  TRP637      0.0006
    134  CD1       65.9740   43.5590   97.1220 C.ar  637  TRP637      0.0946
    135  CD2       65.4380   42.1680   98.7860 C.ar  637  TRP637      0.0152
    136  NE1       66.2800   44.1660   98.2810 N.ar  637  TRP637     -0.2442
    137  CE2       65.9940   43.3360   99.3380 C.ar  637  TRP637      0.0810
    138  CE3       65.0920   41.1270   99.6430 C.ar  637  TRP637      0.0012
    139  CZ2       66.1250   43.5150  100.6870 C.ar  637  TRP637      0.0191
    140  CZ3       65.2770   41.2580  100.9960 C.ar  637  TRP637      0.0001
    141  CH2       65.7690   42.4880  101.5090 C.ar  637  TRP637      0.0015
@<TRIPOS>BOND
     1   120   121    1
     2   121   122    1
     3   115   114    2
     4   103   102    1
     5   103   104    2
     6   112   113    1
     7   131   130    2
     8   114   113    1
     9   102   101    1
    10   102   105    1
    11   113   116    1
    12   122   124   am
    13   122   123    2
    14   124   125    1
    15   105   106    1
    16   130   129    1
    17   128   129    1
    18   128   126   am
    19   116   117    1
    20   125   126    1
    21   129   132    1
    22   106   107   ar
    23   106   108   ar
    24   132   133    1
    25   126   127    2
    26   107   109   ar
    27   117   119    1
    28   117   118    1
    29   134   133   ar
    30   134   136   ar
    31   108   110   ar
    32   133   135   ar
    33   109   111   ar
    34   136   137   ar
    35   110   111   ar
    36   135   137   ar
    37   135   138   ar
    38    53    51    1
    39    46    47    1
    40   137   139   ar
    41   138   140   ar
    42    51    52    1
    43    51    50    1
    44    47    50    1
    45    47    48    1
    46   139   141   ar
    47   140   141   ar
    48    41    40    2
    49    48    49    2
    50    45    43    1
    51     1     2    1
    52    40    39    1
    53    39    42    1
    54    39    38    1
    55    93    95   ar
    56    93    92   ar
    57    12    11    2
    58    42    43    1
    59    86    85    1
    60    44    43    1
    61    89    88    1
    62    89    90    2
    63    58    55    1
    64    58    59    1
    65    95    96   ar
    66    88    91    1
    67    88    87    1
    68    91    92    1
    69    92    94   ar
    70     2     3    1
    71     2     5    1
    72    11    10    1
    73    55    54    1
    74    55    56    1
    75     9     3   am
    76     9    10    1
    77    84    85   ar
    78    84    82   ar
    79    59    60   ar
    80    59    61   ar
    81    85    83   ar
    82    96    94   ar
    83    96    98   ar
    84     3     4    2
    85    60    62   ar
    86    94    97   ar
    87    36    37   ar
    88    36    34   ar
    89     5     6    1
    90    10    13    1
    91    57    56    2
    92    61    63   ar
    93    98   100   ar
    94    37    35   ar
    95    82    80   ar
    96    34    32   ar
    97     6     7    1
    98    62    64   ar
    99    97    99   ar
   100    83    81   ar
   101    14    13    1
   102    14    15    1
   103    74    72   ar
   104    63    64   ar
   105   100    99   ar
   106    30    29    2
   107    35    33   ar
   108    71    72    1
   109    71    70    1
   110    64    65    1
   111    72    73   ar
   112    32    33   ar
   113    32    31    1
   114    16    15    1
   115    16    17    2
   116     7     8    1
   117    80    81   ar
   118    80    79    1
   119    19    17    1
   120    31    28    1
   121    70    67    1
   122    67    68    1
   123    67    66    1
   124    29    28    1
   125    17    18    1
   126    28    27    1
   127    77    76    1
   128    77    78    2
   129    25    24    1
   130    76    79    1
   131    76    75    1
   132    68    69    2
   133    26    24    1
   134    24    21    1
   135    23    22    2
   136    21    22    1
   137    21    20    1
