@<TRIPOS>MOLECULE
tmp/3aymB00.pdb
 83 79 0 0 0
SMALL
GASTEIGER

@<TRIPOS>ATOM
      1  N         21.7320   48.6130   26.6840 N.3   185  ARG185     -0.1231
      2  CA        21.4060   49.9190   26.1570 C.3   185  ARG185      0.1694
      3  C         22.4440   50.9310   26.4310 C.2   185  ARG185      0.2592
      4  O         22.1170   52.0980   26.4900 O.2   185  ARG185     -0.2718
      5  CB        20.1010   50.4020   26.7560 C.3   185  ARG185      0.0321
      6  CG        19.0580   49.3010   26.8010 C.3   185  ARG185      0.0489
      7  CD        17.6920   49.9000   26.7500 C.3   185  ARG185      0.2205
      8  NE        16.6980   48.8680   26.7090 N.pl3 185  ARG185     -0.0865
      9  CZ        15.4550   49.0970   26.3380 C.cat 185  ARG185      0.5346
     10  NH1       14.5630   48.1000   26.3210 N.pl3 185  ARG185      0.1354
     11  NH2       15.1010   50.3260   25.9870 N.pl3 185  ARG185      0.1354
     12  N         23.6860   50.5120   26.6280 N.am  186  ASP186     -0.1960
     13  CA        24.7440   51.5010   26.8600 C.3   186  ASP186      0.1840
     14  C         25.1680   52.1570   25.5280 C.2   186  ASP186      0.2622
     15  O         24.6720   51.8220   24.4330 O.2   186  ASP186     -0.2715
     16  CB        26.0070   50.8890   27.5650 C.3   186  ASP186      0.1450
     17  CG        26.9010   50.0080   26.6150 C.2   186  ASP186      0.3671
     18  OD1       26.6390   48.7730   26.5390 O.co2 186  ASP186     -0.2456
     19  OD2       27.8490   50.5420   25.9580 O.co2 186  ASP186     -0.2456
     20  N         26.1050   53.0840   25.6500 N.am  187  SER187     -0.1950
     21  CA        26.6260   53.7990   24.5050 C.3   187  SER187      0.1924
     22  C         27.2840   52.8820   23.4940 C.2   187  SER187      0.2314
     23  O         26.9010   52.8430   22.3030 O.2   187  SER187     -0.2863
     24  CB        27.6580   54.8250   24.9450 C.3   187  SER187      0.2116
     25  OG        27.0310   55.9530   25.5330 O.3   187  SER187     -0.2180
     26  N         24.9080   50.1750   21.9820 N.3   190  ARG190     -0.1231
     27  CA        23.9440   50.8710   21.1310 C.3   190  ARG190      0.1694
     28  C         24.5660   51.4570   19.8620 C.2   190  ARG190      0.2592
     29  O         24.0600   51.2290   18.7400 O.2   190  ARG190     -0.2718
     30  CB        23.2610   51.9790   21.9320 C.3   190  ARG190      0.0321
     31  CG        22.2750   52.8260   21.1080 C.3   190  ARG190      0.0489
     32  CD        21.2490   53.5040   21.9980 C.3   190  ARG190      0.2205
     33  NE        20.3250   52.5230   22.5620 N.pl3 190  ARG190     -0.0865
     34  CZ        19.4010   52.8350   23.4650 C.cat 190  ARG190      0.5346
     35  NH1       19.3140   54.0970   23.8810 N.pl3 190  ARG190      0.1354
     36  NH2       18.5610   51.9100   23.9380 N.pl3 190  ARG190      0.1354
     37  N         25.6600   52.2030   20.0380 N.am  191  SER191     -0.1952
     38  CA        26.3170   52.8060   18.8970 C.3   191  SER191      0.1924
     39  C         26.6590   51.7400   17.8860 C.2   191  SER191      0.2314
     40  O         26.4980   51.9620   16.6820 O.2   191  SER191     -0.2863
     41  CB        27.5850   53.5280   19.3040 C.3   191  SER191      0.2116
     42  OG        28.4190   52.6330   19.9770 O.3   191  SER191     -0.2180
     43  N         23.3880   50.4140   16.1430 N.3   194  LEU194     -0.1231
     44  CA        22.9080   51.3500   15.1390 C.3   194  LEU194      0.1693
     45  C         23.7100   51.3020   13.8540 C.2   194  LEU194      0.2592
     46  O         23.1410   51.3330   12.7420 O.2   194  LEU194     -0.2718
     47  CB        22.8740   52.7690   15.6930 C.3   194  LEU194      0.0284
     48  CG        21.7860   52.9420   16.7590 C.3   194  LEU194      0.0019
     49  CD1       21.8580   54.3530   17.3650 C.3   194  LEU194      0.0001
     50  CD2       20.4150   52.6470   16.1210 C.3   194  LEU194      0.0001
     51  N         25.0270   51.2240   13.9910 N.am  195  CYS195     -0.1970
     52  CA        25.9010   51.1370   12.8150 C.3   195  CYS195      0.1712
     53  C         25.6040   49.8320   12.0410 C.2   195  CYS195      0.2296
     54  O         25.5540   49.8200   10.7890 O.2   195  CYS195     -0.2864
     55  CB        27.3720   51.1550   13.2460 C.3   195  CYS195      0.0983
     56  SG        27.9790   52.7740   13.6250 S.3   195  CYS195     -0.0798
     57  N         22.3370   50.5640   10.1380 N.3   198  ILE198     -0.1231
     58  CA        22.5200   51.5710    9.0990 C.3   198  ILE198      0.1692
     59  C         23.4800   51.1900    7.9640 C.2   198  ILE198      0.2591
     60  O         23.0950   51.2270    6.7870 O.2   198  ILE198     -0.2718
     61  CB        22.9510   52.9210    9.7390 C.3   198  ILE198      0.0266
     62  CG1       21.8380   53.4050   10.6790 C.3   198  ILE198      0.0019
     63  CG2       23.2410   53.9630    8.6650 C.3   198  ILE198      0.0020
     64  CD1       22.1480   54.6830   11.4290 C.3   198  ILE198      0.0001
     65  N         24.7190   50.8350    8.2860 N.am  199  LEU199     -0.1980
     66  CA        25.6510   50.4670    7.2260 C.3   199  LEU199      0.1596
     67  C         25.4410   49.0430    6.6700 C.2   199  LEU199      0.2287
     68  O         25.5240   48.8080    5.4480 O.2   199  LEU199     -0.2864
     69  CB        27.0890   50.6210    7.7270 C.3   199  LEU199      0.0297
     70  CG        27.5280   52.0370    8.1020 C.3   199  LEU199      0.0022
     71  CD1       26.9540   52.9710    7.0980 C.3   199  LEU199      0.0001
     72  CD2       27.0580   52.4320    9.4820 C.3   199  LEU199      0.0001
     73  N         15.2320   49.3310   22.1740 N.3   278  PHE278     -0.1241
     74  CA        14.4890   50.5460   22.4560 C.3   278  PHE278      0.1605
     75  C         13.0970   50.3500   23.0400 C.2   278  PHE278      0.2264
     76  O         12.6530   51.1850   23.8240 O.2   278  PHE278     -0.2867
     77  CB        14.4080   51.3830   21.1810 C.3   278  PHE278      0.0534
     78  CG        15.7450   51.5970   20.5150 C.ar  278  PHE278     -0.0203
     79  CD1       16.1580   50.7930   19.4570 C.ar  278  PHE278     -0.0042
     80  CD2       16.5940   52.6110   20.9500 C.ar  278  PHE278     -0.0042
     81  CE1       17.4030   51.0150   18.8370 C.ar  278  PHE278     -0.0003
     82  CE2       17.8350   52.8380   20.3390 C.ar  278  PHE278     -0.0003
     83  CZ        18.2400   52.0510   19.2870 C.ar  278  PHE278     -0.0000
@<TRIPOS>BOND
     1    68    67    2
     2    67    66    1
     3    60    59    2
     4    71    70    1
     5    66    69    1
     6    66    65    1
     7    69    70    1
     8    59    65   am
     9    59    58    1
    10    70    72    1
    11    63    61    1
    12    58    61    1
    13    58    57    1
    14    61    62    1
    15    62    64    1
    16    54    53    2
    17    53    52    1
    18    46    45    2
    19    52    55    1
    20    52    51    1
    21    55    56    1
    22    45    51   am
    23    45    44    1
    24    44    47    1
    25    44    43    1
    26    47    48    1
    27    50    48    1
    28    40    39    2
    29    48    49    1
    30    39    38    1
    31    29    28    2
    32    81    83   ar
    33    81    79   ar
    34    38    41    1
    35    38    37    1
    36    83    82   ar
    37    41    42    1
    38    79    78   ar
    39    28    37   am
    40    28    27    1
    41    82    80   ar
    42    78    80   ar
    43    78    77    1
    44    31    30    1
    45    31    32    1
    46    27    30    1
    47    27    26    1
    48    77    74    1
    49    32    33    1
    50    73    74    1
    51    23    22    2
    52    74    75    1
    53    33    34    2
    54    75    76    2
    55    34    35    1
    56    34    36    1
    57    22    21    1
    58    15    14    2
    59    21    24    1
    60    21    20    1
    61    24    25    1
    62    14    20   am
    63    14    13    1
    64    19    17   ar
    65    11     9    1
    66     2     3    1
    67     2     1    1
    68     2     5    1
    69    10     9    1
    70     9     8    2
    71     3     4    2
    72     3    12   am
    73    18    17   ar
    74    17    16    1
    75    12    13    1
    76     8     7    1
    77     7     6    1
    78     5     6    1
    79    13    16    1
