@<TRIPOS>MOLECULE
tmp/3aymB01.pdb
 176 165 0 0 0
SMALL
GASTEIGER

@<TRIPOS>ATOM
      1  N         29.7070   34.2570  -17.3820 N.3    59  THR59      -0.1204
      2  CA        29.6700   35.7170  -17.5510 C.3    59  THR59       0.1979
      3  C         29.9950   36.3930  -16.1760 C.2    59  THR59       0.2460
      4  O         29.6890   35.8320  -15.1070 O.2    59  THR59      -0.2732
      5  CB        28.2730   36.1830  -18.0450 C.3    59  THR59       0.1783
      6  OG1       27.4620   36.6380  -16.9410 O.3    59  THR59      -0.2211
      7  CG2       27.5710   35.0330  -18.7630 C.3    59  THR59       0.0376
      8  N         30.5990   37.6100  -16.1940 N.am   60  PRO60      -0.2717
      9  CA        30.9820   38.3730  -14.9930 C.3    60  PRO60       0.1535
     10  C         29.9560   38.5250  -13.8510 C.2    60  PRO60       0.2598
     11  O         30.2020   38.1030  -12.6950 O.2    60  PRO60      -0.2715
     12  CB        31.4020   39.7280  -15.5700 C.3    60  PRO60       0.0310
     13  CG        31.9480   39.3690  -16.8730 C.3    60  PRO60       0.0237
     14  CD        30.9250   38.3850  -17.4020 C.3    60  PRO60       0.0939
     15  N         28.8150   39.1320  -14.1700 N.am   61  ALA61      -0.1964
     16  CA        27.7940   39.3670  -13.1640 C.3    61  ALA61       0.1728
     17  C         27.6070   38.1070  -12.3610 C.2    61  ALA61       0.2616
     18  O         27.3960   38.1760  -11.1450 O.2    61  ALA61      -0.2715
     19  CB        26.4840   39.7890  -13.8040 C.3    61  ALA61       0.0334
     20  N         27.7150   36.9490  -13.0140 N.am   62  ASN62      -0.1972
     21  CA        27.5400   35.6880  -12.2820 C.3    62  ASN62       0.1688
     22  C         28.4880   35.5220  -11.0630 C.2    62  ASN62       0.2292
     23  O         28.1770   34.8030  -10.0940 O.2    62  ASN62      -0.2864
     24  CB        27.6570   34.5000  -13.2390 C.3    62  ASN62       0.1181
     25  CG        26.3510   34.2130  -13.9660 C.2    62  ASN62       0.2629
     26  OD1       26.2910   33.3380  -14.8220 O.2    62  ASN62      -0.2716
     27  ND2       25.2940   34.9450  -13.6220 N.am   62  ASN62      -0.0877
     28  N         26.6620   35.9140   -8.0110 N.3    65  ILE65      -0.1245
     29  CA        25.8730   34.7750   -7.5490 C.3    65  ILE65       0.1561
     30  C         26.7780   33.8420   -6.7740 C.2    65  ILE65       0.2260
     31  O         26.4530   33.4280   -5.6380 O.2    65  ILE65      -0.2867
     32  CB        25.2530   34.0370   -8.7070 C.3    65  ILE65       0.0252
     33  CG1       24.1830   34.9440   -9.3250 C.3    65  ILE65       0.0019
     34  CG2       24.6460   32.7010   -8.2340 C.3    65  ILE65       0.0019
     35  CD1       23.4790   34.3470  -10.5590 C.3    65  ILE65       0.0001
     36  N         24.3170   43.1740   -7.2720 N.3   121  ILE121     -0.1245
     37  CA        23.5710   42.5980   -8.3710 C.3   121  ILE121      0.1561
     38  C         22.6070   43.6450   -8.9280 C.2   121  ILE121      0.2260
     39  O         22.5260   43.8670  -10.1550 O.2   121  ILE121     -0.2867
     40  CB        22.7840   41.3850   -7.8840 C.3   121  ILE121      0.0252
     41  CG1       23.7640   40.2090   -7.7320 C.3   121  ILE121      0.0019
     42  CG2       21.6260   41.0800   -8.8140 C.3   121  ILE121      0.0019
     43  CD1       23.2220   39.0340   -6.8620 C.3   121  ILE121      0.0001
     44  N         24.0320   46.0310  -11.2070 N.3   124  ASP124     -0.1225
     45  CA        24.2020   45.4730  -12.5560 C.3   124  ASP124      0.1805
     46  C         22.8360   45.4410  -13.2670 C.2   124  ASP124      0.2597
     47  O         22.6860   45.9470  -14.3950 O.2   124  ASP124     -0.2718
     48  CB        24.7640   44.0560  -12.4820 C.3   124  ASP124      0.1424
     49  CG        24.9930   43.4600  -13.8470 C.2   124  ASP124      0.3668
     50  OD1       24.5770   42.3070  -14.0940 O.co2 124  ASP124     -0.2456
     51  OD2       25.5930   44.1600  -14.6800 O.co2 124  ASP124     -0.2456
     52  N         21.8520   44.8380  -12.5960 N.am  125  ARG125     -0.1979
     53  CA        20.5080   44.7470  -13.1150 C.3   125  ARG125      0.1597
     54  C         20.0420   46.1230  -13.5850 C.2   125  ARG125      0.2287
     55  O         19.3640   46.2440  -14.6040 O.2   125  ARG125     -0.2864
     56  CB        19.5840   44.2290  -12.0250 C.3   125  ARG125      0.0334
     57  CG        18.9450   42.8990  -12.3550 C.3   125  ARG125      0.0492
     58  CD        19.9860   41.8710  -12.7610 C.3   125  ARG125      0.2205
     59  NE        19.9540   41.5270  -14.1870 N.pl3 125  ARG125     -0.0865
     60  CZ        20.9970   41.6520  -15.0140 C.cat 125  ARG125      0.5346
     61  NH1       22.1630   42.1280  -14.5500 N.pl3 125  ARG125      0.1354
     62  NH2       20.8740   41.2880  -16.2950 N.pl3 125  ARG125      0.1354
     63  N         26.8530   45.8440  -19.8990 N.3   138  LYS138     -0.1231
     64  CA        27.0230   44.4880  -19.3450 C.3   138  LYS138      0.1693
     65  C         28.1230   44.5260  -18.2730 C.2   138  LYS138      0.2591
     66  O         29.0930   45.2640  -18.4000 O.2   138  LYS138     -0.2718
     67  CB        27.4480   43.5220  -20.4560 C.3   138  LYS138      0.0285
     68  CG        26.5470   42.3080  -20.6540 C.3   138  LYS138      0.0035
     69  CD        25.2390   42.6730  -21.3100 C.3   138  LYS138      0.0206
     70  CE        24.3740   41.4350  -21.5490 C.3   138  LYS138      0.1093
     71  NZ        23.0710   41.7670  -22.2620 N.3   138  LYS138     -0.1314
     72  N         27.9950   43.7360  -17.2190 N.am  139  MET139     -0.1979
     73  CA        29.0280   43.7600  -16.1900 C.3   139  MET139      0.1605
     74  C         30.3370   43.2070  -16.7320 C.2   139  MET139      0.2287
     75  O         30.3190   42.3470  -17.6060 O.2   139  MET139     -0.2864
     76  CB        28.6060   42.9200  -14.9880 C.3   139  MET139      0.0413
     77  CG        29.6850   42.8400  -13.8900 C.3   139  MET139      0.0598
     78  SD        30.1170   44.4670  -13.2100 S.3   139  MET139     -0.1393
     79  CE        28.6060   44.8090  -12.2860 C.3   139  MET139      0.0692
     80  N         15.1010   37.9170  -21.5330 N.3   247  ALA247     -0.1231
     81  CA        16.0120   37.1680  -20.7120 C.3   247  ALA247      0.1694
     82  C         16.5310   37.9940  -19.5280 C.2   247  ALA247      0.2591
     83  O         16.3830   37.6080  -18.3630 O.2   247  ALA247     -0.2718
     84  CB        17.1530   36.6910  -21.5580 C.3   247  ALA247      0.0304
     85  N         17.1300   39.1380  -19.8210 N.am  248  GLU248     -0.1979
     86  CA        17.6760   39.9880  -18.7750 C.3   248  GLU248      0.1602
     87  C         16.6280   40.3450  -17.7270 C.2   248  GLU248      0.2287
     88  O         16.8730   40.2710  -16.5160 O.2   248  GLU248     -0.2864
     89  CB        18.2590   41.2620  -19.3940 C.3   248  GLU248      0.0415
     90  CG        19.4370   41.0050  -20.3330 C.3   248  GLU248      0.1163
     91  CD        20.7510   40.8250  -19.5990 C.2   248  GLU248      0.3649
     92  OE1       20.7580   40.1530  -18.5510 O.co2 248  GLU248     -0.2457
     93  OE2       21.7830   41.3460  -20.0630 O.co2 248  GLU248     -0.2457
     94  N         16.2460   37.6200  -15.1030 N.3   251  LEU251     -0.1245
     95  CA        17.2430   37.5690  -14.0540 C.3   251  LEU251      0.1561
     96  C         16.8740   38.6290  -13.0160 C.2   251  LEU251      0.2260
     97  O         16.9020   38.3690  -11.7990 O.2   251  LEU251     -0.2867
     98  CB        18.6340   37.8530  -14.6120 C.3   251  LEU251      0.0270
     99  CG        19.3290   36.7370  -15.4400 C.3   251  LEU251      0.0019
    100  CD1       19.1530   35.3960  -14.7370 C.3   251  LEU251      0.0001
    101  CD2       18.7640   36.6420  -16.8500 C.3   251  LEU251      0.0001
    102  N         14.2100   37.5670  -10.7760 N.3   254  ILE254     -0.1231
    103  CA        14.7720   36.5810   -9.8620 C.3   254  ILE254      0.1692
    104  C         15.4610   37.2970   -8.7200 C.2   254  ILE254      0.2592
    105  O         15.2550   36.9670   -7.5260 O.2   254  ILE254     -0.2718
    106  CB        15.7810   35.6660  -10.5580 C.3   254  ILE254      0.0266
    107  CG1       15.0540   34.7590  -11.5490 C.3   254  ILE254      0.0019
    108  CG2       16.5140   34.8050   -9.5210 C.3   254  ILE254      0.0020
    109  CD1       15.9920   33.9860  -12.4460 C.3   254  ILE254      0.0001
    110  N         16.2690   38.2930   -9.0810 N.am  255  SER255     -0.1952
    111  CA        16.9900   39.0830   -8.0830 C.3   255  SER255      0.1924
    112  C         15.9940   39.6530   -7.0670 C.2   255  SER255      0.2314
    113  O         16.2270   39.5760   -5.8530 O.2   255  SER255     -0.2863
    114  CB        17.7340   40.2240   -8.7600 C.3   255  SER255      0.2116
    115  OG        18.1820   39.7850  -10.0180 O.3   255  SER255     -0.2180
    116  N         14.8620   37.0490   -4.5610 N.3   258  ILE258     -0.1245
    117  CA        15.8100   36.6920   -3.4980 C.3   258  ILE258      0.1561
    118  C         15.9710   37.8520   -2.4770 C.2   258  ILE258      0.2260
    119  O         16.1970   37.6350   -1.2710 O.2   258  ILE258     -0.2867
    120  CB        17.1910   36.2950   -4.0460 C.3   258  ILE258      0.0252
    121  CG1       17.9050   37.5210   -4.5860 C.3   258  ILE258      0.0019
    122  CG2       17.0390   35.2750   -5.1320 C.3   258  ILE258      0.0019
    123  CD1       19.3770   37.2670   -4.9140 C.3   258  ILE258      0.0001
    124  N         16.6300   29.5670   -7.6440 N.3   307  TYR307     -0.1241
    125  CA        17.2380   29.4600   -8.9590 C.3   307  TYR307      0.1605
    126  C         16.7710   28.2040   -9.6640 C.2   307  TYR307      0.2264
    127  O         16.4400   28.2280  -10.8400 O.2   307  TYR307     -0.2867
    128  CB        18.7650   29.3910   -8.8620 C.3   307  TYR307      0.0534
    129  CG        19.4690   30.5700   -8.1910 C.ar  307  TYR307     -0.0201
    130  CD1       19.0330   31.8930   -8.3750 C.ar  307  TYR307     -0.0009
    131  CD2       20.6110   30.3650   -7.4120 C.ar  307  TYR307     -0.0009
    132  CE1       19.7280   32.9650   -7.7870 C.ar  307  TYR307      0.0417
    133  CE2       21.2990   31.4250   -6.8360 C.ar  307  TYR307      0.0417
    134  CZ        20.8550   32.7010   -7.0200 C.ar  307  TYR307      0.1957
    135  OH        21.5260   33.6990   -6.4020 O.3   307  TYR307     -0.2866
    136  N         15.8440   29.9240  -12.8300 N.3   311  HIS311     -0.1241
    137  CA        17.0150   30.1720  -13.6450 C.3   311  HIS311      0.1621
    138  C         17.0460   29.0600  -14.6830 C.2   311  HIS311      0.2264
    139  O         17.1890   27.8710  -14.3240 O.2   311  HIS311     -0.2867
    140  CB        18.3230   30.1140  -12.8200 C.3   311  HIS311      0.0745
    141  CG        19.4790   30.8720  -13.4420 C.ar  311  HIS311      0.0817
    142  ND1       20.1180   30.4690  -14.6000 N.ar  311  HIS311     -0.2268
    143  CD2       20.1010   32.0200  -13.0600 C.ar  311  HIS311      0.1154
    144  CE1       21.0770   31.3270  -14.8980 C.ar  311  HIS311      0.1986
    145  NE2       21.0850   32.2760  -13.9760 N.ar  311  HIS311     -0.2212
    146  N         19.2750   28.7400  -17.6410 N.3   313  LYS313     -0.1245
    147  CA        20.6160   28.2220  -17.8980 C.3   313  LYS313      0.1561
    148  C         21.1320   27.4270  -16.7000 C.2   313  LYS313      0.2260
    149  O         21.9300   26.4980  -16.8700 O.2   313  LYS313     -0.2867
    150  CB        21.5690   29.3620  -18.3160 C.3   313  LYS313      0.0271
    151  CG        21.1930   29.9620  -19.6940 C.3   313  LYS313      0.0035
    152  CD        22.0780   31.1230  -20.1180 C.3   313  LYS313      0.0206
    153  CE        23.4960   30.6970  -20.4780 C.3   313  LYS313      0.1093
    154  NZ        24.3630   31.8770  -20.8380 N.3   313  LYS313     -0.1314
    155  N         17.5150   32.4230  -24.1880 N.3   339  ASP339     -0.1239
    156  CA        18.9530   32.6380  -24.0050 C.3   339  ASP339      0.1674
    157  C         19.7270   32.3010  -25.2980 C.2   339  ASP339      0.2266
    158  O         20.6930   32.9810  -25.6600 O.2   339  ASP339     -0.2867
    159  CB        19.4920   31.7670  -22.8560 C.3   339  ASP339      0.1410
    160  CG        19.1310   32.3000  -21.4810 C.2   339  ASP339      0.3668
    161  OD1       19.6180   33.4020  -21.0970 O.co2 339  ASP339     -0.2456
    162  OD2       18.3640   31.5950  -20.7860 O.co2 339  ASP339     -0.2456
    163  N         19.0520   34.9850  -27.8750 N.3   342  ALA342     -0.1231
    164  CA        19.7510   36.2000  -27.4200 C.3   342  ALA342      0.1694
    165  C         21.2740   36.1310  -27.6490 C.2   342  ALA342      0.2591
    166  O         21.8880   37.1030  -28.0930 O.2   342  ALA342     -0.2718
    167  CB        19.4540   36.4530  -25.9350 C.3   342  ALA342      0.0304
    168  N         21.8750   34.9780  -27.3590 N.am  343  GLU343     -0.1979
    169  CA        23.3110   34.7940  -27.5230 C.3   343  GLU343      0.1602
    170  C         23.7220   34.4300  -28.9460 C.2   343  GLU343      0.2287
    171  O         24.8140   34.8030  -29.3750 O.2   343  GLU343     -0.2864
    172  CB        23.8180   33.7210  -26.5570 C.3   343  GLU343      0.0415
    173  CG        23.5370   34.0140  -25.0790 C.3   343  GLU343      0.1163
    174  CD        23.9730   35.4240  -24.6370 C.2   343  GLU343      0.3649
    175  OE1       24.9680   35.9580  -25.1900 O.co2 343  GLU343     -0.2457
    176  OE2       23.3290   35.9890  -23.7210 O.co2 343  GLU343     -0.2457
@<TRIPOS>BOND
     1   171   170    2
     2   170   169    1
     3   166   165    2
     4   163   164    1
     5   165   164    1
     6   165   168   am
     7   169   168    1
     8   169   172    1
     9   164   167    1
    10   172   173    1
    11   158   157    2
    12   157   156    1
    13   175   174   ar
    14   173   174    1
    15   174   176   ar
    16   155   156    1
    17   156   159    1
    18   159   160    1
    19    71    70    1
    20    84    81    1
    21    70    69    1
    22    80    81    1
    23   160   161   ar
    24   160   162   ar
    25    69    68    1
    26   154   153    1
    27    81    82    1
    28    68    67    1
    29   153   152    1
    30    67    64    1
    31    90    91    1
    32    90    89    1
    33   152   151    1
    34    93    91   ar
    35    63    64    1
    36    85    82   am
    37    85    86    1
    38   151   150    1
    39    91    92   ar
    40    82    83    2
    41    89    86    1
    42    64    65    1
    43    86    87    1
    44     7     5    1
    45    66    65    2
    46   150   147    1
    47    65    72   am
    48     5     2    1
    49     5     6    1
    50   147   146    1
    51   147   148    1
    52    87    88    2
    53    75    74    2
    54     2     1    1
    55     2     3    1
    56    14    13    1
    57    14     8    1
    58    72    73    1
    59    13    12    1
    60   149   148    2
    61   101    99    1
    62    74    73    1
    63    62    60    1
    64     8     3   am
    65     8     9    1
    66    73    76    1
    67     3     4    2
    68    12     9    1
    69    99   100    1
    70    99    98    1
    71    94    95    1
    72    60    61    1
    73    60    59    2
    74     9    10    1
    75    76    77    1
    76   144   142   ar
    77   144   145   ar
    78    26    25    2
    79   138   139    2
    80   138   137    1
    81    51    49   ar
    82    98    95    1
    83    55    54    2
    84   142   141   ar
    85    47    46    2
    86    59    58    1
    87    15    10   am
    88    15    16    1
    89    50    49   ar
    90    95    96    1
    91   145   143   ar
    92    25    27   am
    93    25    24    1
    94    77    78    1
    95    10    11    2
    96    49    48    1
    97    19    16    1
    98   137   136    1
    99   137   140    1
   100    54    53    1
   101   141   143   ar
   102   141   140    1
   103    46    52   am
   104    46    45    1
   105    24    21    1
   106    78    79    1
   107    16    17    1
   108    53    52    1
   109    53    56    1
   110    96    97    2
   111    20    17   am
   112    20    21    1
   113    58    57    1
   114    45    48    1
   115    45    44    1
   116   109   107    1
   117    17    18    2
   118    57    56    1
   119    21    22    1
   120   107   106    1
   121    22    23    2
   122   127   126    2
   123   102   103    1
   124    35    33    1
   125   106   103    1
   126   106   108    1
   127    39    38    2
   128   115   114    1
   129   103   104    1
   130   126   125    1
   131    33    32    1
   132   110   104   am
   133   110   111    1
   134   125   128    1
   135   125   124    1
   136    38    37    1
   137   128   129    1
   138    42    40    1
   139   114   111    1
   140   104   105    2
   141    32    34    1
   142    32    29    1
   143   130   129   ar
   144   130   132   ar
   145    37    40    1
   146    37    36    1
   147   129   131   ar
   148   111   112    1
   149    28    29    1
   150    40    41    1
   151   132   134   ar
   152    41    43    1
   153    29    30    1
   154   131   133   ar
   155   112   113    2
   156   134   133   ar
   157   134   135    1
   158    30    31    2
   159   122   120    1
   160   123   121    1
   161   121   120    1
   162   116   117    1
   163   120   117    1
   164   117   118    1
   165   118   119    2
