@<TRIPOS>MOLECULE
tmp/3aynA02.pdb
 118 116 0 0 0
SMALL
GASTEIGER

@<TRIPOS>ATOM
      1  N          1.2090   44.8790   47.0930 N.3    97  PHE97      -0.1227
      2  CA         2.3580   45.6990   47.4700 C.3    97  PHE97       0.1736
      3  C          2.1800   46.3950   48.8170 C.2    97  PHE97       0.2595
      4  O          3.0890   46.3980   49.6540 O.2    97  PHE97      -0.2718
      5  CB         2.6300   46.7500   46.3870 C.3    97  PHE97       0.0547
      6  CG         4.0580   47.2110   46.3420 C.ar   97  PHE97      -0.0202
      7  CD1        4.4140   48.3610   45.6420 C.ar   97  PHE97      -0.0042
      8  CD2        5.0610   46.4810   46.9800 C.ar   97  PHE97      -0.0042
      9  CE1        5.7440   48.7790   45.5790 C.ar   97  PHE97      -0.0003
     10  CE2        6.3970   46.8870   46.9250 C.ar   97  PHE97      -0.0003
     11  CZ         6.7400   48.0390   46.2220 C.ar   97  PHE97      -0.0000
     12  N          1.0070   46.9850   49.0260 N.am   98  ALA98      -0.1980
     13  CA         0.7100   47.6890   50.2700 C.3    98  ALA98       0.1597
     14  C          0.9170   46.7900   51.4840 C.2    98  ALA98       0.2287
     15  O          1.4740   47.2160   52.4940 O.2    98  ALA98      -0.2864
     16  CB        -0.7210   48.2180   50.2450 C.3    98  ALA98       0.0319
     17  N          4.6990   46.2170   52.0380 N.3   101  LYS101     -0.1231
     18  CA         5.3220   47.3480   52.7060 C.3   101  LYS101      0.1693
     19  C          5.0010   47.3100   54.2050 C.2   101  LYS101      0.2591
     20  O          5.8990   47.4320   55.0420 O.2   101  LYS101     -0.2718
     21  CB         4.8390   48.6560   52.0780 C.3   101  LYS101      0.0285
     22  CG         5.0400   48.7050   50.5730 C.3   101  LYS101      0.0035
     23  CD         4.7280   50.0870   50.0210 C.3   101  LYS101      0.0206
     24  CE         4.8990   50.1500   48.5070 C.3   101  LYS101      0.1093
     25  NZ         4.6700   51.5290   47.9800 N.3   101  LYS101     -0.1314
     26  N          3.7270   47.1260   54.5370 N.am  102  VAL102     -0.1980
     27  CA         3.3110   47.0610   55.9360 C.3   102  VAL102      0.1595
     28  C          4.0510   45.9220   56.6220 C.2   102  VAL102      0.2287
     29  O          4.5120   46.0630   57.7540 O.2   102  VAL102     -0.2864
     30  CB         1.7780   46.8180   56.0710 C.3   102  VAL102      0.0276
     31  CG1        1.4310   46.4480   57.5040 C.3   102  VAL102      0.0022
     32  CG2        1.0110   48.0740   55.6650 C.3   102  VAL102      0.0022
     33  N          7.8440   46.8480   56.9680 N.3   105  PHE105     -0.1227
     34  CA         7.9230   47.9770   57.8930 C.3   105  PHE105      0.1736
     35  C          7.6430   47.5710   59.3480 C.2   105  PHE105      0.2595
     36  O          8.2680   48.0770   60.2830 O.2   105  PHE105     -0.2718
     37  CB         6.9370   49.0480   57.4310 C.3   105  PHE105      0.0547
     38  CG         6.8460   50.2290   58.3350 C.ar  105  PHE105     -0.0202
     39  CD1        7.9760   50.9530   58.6720 C.ar  105  PHE105     -0.0042
     40  CD2        5.6100   50.6380   58.8290 C.ar  105  PHE105     -0.0042
     41  CE1        7.8820   52.0820   59.4760 C.ar  105  PHE105     -0.0003
     42  CE2        5.5040   51.7680   59.6340 C.ar  105  PHE105     -0.0003
     43  CZ         6.6430   52.4900   59.9620 C.ar  105  PHE105     -0.0000
     44  N          6.6970   46.6490   59.5220 N.am  106  ILE106     -0.1980
     45  CA         6.3240   46.1400   60.8330 C.3   106  ILE106      0.1595
     46  C          7.4250   45.2390   61.3560 C.2   106  ILE106      0.2287
     47  O          7.7080   45.2140   62.5550 O.2   106  ILE106     -0.2864
     48  CB         5.0090   45.3370   60.7580 C.3   106  ILE106      0.0276
     49  CG1        3.8340   46.3010   60.6150 C.3   106  ILE106      0.0022
     50  CG2        4.8350   44.4630   62.0010 C.3   106  ILE106      0.0022
     51  CD1        3.6610   47.2130   61.8050 C.3   106  ILE106      0.0001
     52  N         10.3050   47.7560   62.2660 N.3   109  ILE109     -0.1231
     53  CA         9.8870   48.6330   63.3570 C.3   109  ILE109      0.1692
     54  C          9.9420   47.9470   64.7210 C.2   109  ILE109      0.2592
     55  O         10.3420   48.5630   65.7110 O.2   109  ILE109     -0.2718
     56  CB         8.4440   49.1780   63.1060 C.3   109  ILE109      0.0266
     57  CG1        8.1320   50.3240   64.0670 C.3   109  ILE109      0.0019
     58  CG2        7.4290   48.0860   63.3160 C.3   109  ILE109      0.0020
     59  CD1        6.8780   51.0950   63.7060 C.3   109  ILE109      0.0001
     60  N          9.5470   46.6760   64.7730 N.am  110  PHE110     -0.1976
     61  CA         9.5650   45.9460   66.0350 C.3   110  PHE110      0.1639
     62  C         10.8500   45.1920   66.2830 C.2   110  PHE110      0.2290
     63  O         11.1010   44.7340   67.3960 O.2   110  PHE110     -0.2864
     64  CB         8.3590   45.0110   66.1340 C.3   110  PHE110      0.0560
     65  CG         7.0710   45.7430   66.3210 C.ar  110  PHE110     -0.0200
     66  CD1        6.1570   45.8520   65.2730 C.ar  110  PHE110     -0.0042
     67  CD2        6.8230   46.4130   67.5090 C.ar  110  PHE110     -0.0042
     68  CE1        5.0060   46.6260   65.4060 C.ar  110  PHE110     -0.0003
     69  CE2        5.6820   47.1900   67.6580 C.ar  110  PHE110     -0.0003
     70  CZ         4.7670   47.3010   66.5990 C.ar  110  PHE110     -0.0000
     71  N          9.6830   53.9910   70.9740 N.3   152  TRP152     -0.1241
     72  CA         8.7320   54.0020   69.8770 C.3   152  TRP152      0.1605
     73  C          9.1320   54.9840   68.7880 C.2   152  TRP152      0.2264
     74  O          9.1490   54.6310   67.6120 O.2   152  TRP152     -0.2867
     75  CB         7.3110   54.2950   70.3860 C.3   152  TRP152      0.0550
     76  CG         6.5980   53.0630   70.8890 C.ar  152  TRP152      0.0003
     77  CD1        6.7710   52.4440   72.0940 C.ar  152  TRP152      0.0946
     78  CD2        5.6440   52.2670   70.1670 C.ar  152  TRP152      0.0152
     79  NE1        5.9900   51.3150   72.1700 N.ar  152  TRP152     -0.2442
     80  CE2        5.2880   51.1810   71.0010 C.ar  152  TRP152      0.0810
     81  CE3        5.0570   52.3640   68.8910 C.ar  152  TRP152      0.0012
     82  CZ2        4.3730   50.2000   70.6060 C.ar  152  TRP152      0.0191
     83  CZ3        4.1480   51.3890   68.5000 C.ar  152  TRP152      0.0001
     84  CH2        3.8160   50.3200   69.3570 C.ar  152  TRP152      0.0015
     85  N         10.2410   53.6480   65.0000 N.3   156  VAL156     -0.1245
     86  CA         9.5030   54.0520   63.8130 C.3   156  VAL156      0.1561
     87  C         10.4180   54.8430   62.8890 C.2   156  VAL156      0.2260
     88  O         10.4290   54.6150   61.6800 O.2   156  VAL156     -0.2867
     89  CB         8.2730   54.9140   64.1840 C.3   156  VAL156      0.0252
     90  CG1        7.5180   55.3240   62.9230 C.3   156  VAL156      0.0019
     91  CG2        7.3640   54.1290   65.1190 C.3   156  VAL156      0.0019
     92  N         10.8920   53.6270   58.9970 N.3   160  ILE160     -0.1245
     93  CA         9.9570   54.2570   58.0780 C.3   160  ILE160      0.1561
     94  C         10.5810   54.8190   56.8060 C.2   160  ILE160      0.2260
     95  O          9.8700   55.2030   55.8780 O.2   160  ILE160     -0.2867
     96  CB         9.1540   55.3690   58.7790 C.3   160  ILE160      0.0252
     97  CG1        7.8970   55.6830   57.9630 C.3   160  ILE160      0.0019
     98  CG2       10.0040   56.6200   58.9280 C.3   160  ILE160      0.0019
     99  CD1        6.9340   56.6080   58.6700 C.3   160  ILE160      0.0001
    100  N          9.3560   53.6460   53.5800 N.3   163  ILE163     -0.1231
    101  CA         7.9660   54.0210   53.3760 C.3   163  ILE163      0.1692
    102  C          7.8910   55.2980   52.5610 C.2   163  ILE163      0.2592
    103  O          6.9180   55.5260   51.8450 O.2   163  ILE163     -0.2718
    104  CB         7.2240   54.2390   54.7120 C.3   163  ILE163      0.0266
    105  CG1        7.1010   52.9070   55.4570 C.3   163  ILE163      0.0019
    106  CG2        5.8460   54.8520   54.4510 C.3   163  ILE163      0.0020
    107  CD1        6.3490   51.8460   54.6830 C.3   163  ILE163      0.0001
    108  N          8.9310   56.1190   52.6600 N.am  164  PHE164     -0.1976
    109  CA         8.9590   57.3770   51.9310 C.3   164  PHE164      0.1639
    110  C          9.9590   57.4600   50.7830 C.2   164  PHE164      0.2290
    111  O         10.2640   58.5490   50.3020 O.2   164  PHE164     -0.2864
    112  CB         9.1860   58.5280   52.9050 C.3   164  PHE164      0.0560
    113  CG         8.0320   58.7540   53.8330 C.ar  164  PHE164     -0.0200
    114  CD1        6.7580   58.9950   53.3230 C.ar  164  PHE164     -0.0042
    115  CD2        8.2070   58.7220   55.2150 C.ar  164  PHE164     -0.0042
    116  CE1        5.6760   59.2040   54.1680 C.ar  164  PHE164     -0.0003
    117  CE2        7.1300   58.9320   56.0760 C.ar  164  PHE164     -0.0003
    118  CZ         5.8640   59.1720   55.5520 C.ar  164  PHE164     -0.0000
@<TRIPOS>BOND
     1     9     7   ar
     2     9    11   ar
     3     7     6   ar
     4    11    10   ar
     5     6     5    1
     6     6     8   ar
     7     5     2    1
     8    10     8   ar
     9     1     2    1
    10     2     3    1
    11    25    24    1
    12    24    23    1
    13     3    12   am
    14     3     4    2
    15    12    13    1
    16    23    22    1
    17    16    13    1
    18    13    14    1
    19   111   110    2
    20    22    21    1
    21   110   109    1
    22    14    15    2
    23   103   102    2
    24   109   108    1
    25   109   112    1
    26    17    18    1
    27    21    18    1
    28   102   108   am
    29   102   101    1
    30    18    19    1
    31   112   113    1
    32   114   113   ar
    33   114   116   ar
    34   101   100    1
    35   101   104    1
    36   113   115   ar
    37   116   118   ar
    38    19    26   am
    39    19    20    2
    40   106   104    1
    41    26    27    1
    42   107   105    1
    43   104   105    1
    44   115   117   ar
    45   118   117   ar
    46    32    30    1
    47    95    94    2
    48    27    30    1
    49    27    28    1
    50    30    31    1
    51    28    29    2
    52    94    93    1
    53    33    34    1
    54    37    34    1
    55    37    38    1
    56    34    35    1
    57    97    99    1
    58    97    96    1
    59    93    96    1
    60    93    92    1
    61    38    39   ar
    62    38    40   ar
    63    39    41   ar
    64    96    98    1
    65    40    42   ar
    66    35    44   am
    67    35    36    2
    68    41    43   ar
    69    44    45    1
    70    42    43   ar
    71    49    48    1
    72    49    51    1
    73    48    45    1
    74    48    50    1
    75    45    46    1
    76    46    47    2
    77    88    87    2
    78    52    53    1
    79    87    86    1
    80    90    89    1
    81    56    58    1
    82    56    53    1
    83    56    57    1
    84    53    54    1
    85    59    57    1
    86    86    89    1
    87    86    85    1
    88    89    91    1
    89    54    60   am
    90    54    55    2
    91    60    61    1
    92    66    68   ar
    93    66    65   ar
    94    68    70   ar
    95    61    64    1
    96    61    62    1
    97    64    65    1
    98    62    63    2
    99    65    67   ar
   100    70    69   ar
   101    67    69   ar
   102    74    73    2
   103    83    81   ar
   104    83    84   ar
   105    73    72    1
   106    81    78   ar
   107    84    82   ar
   108    72    75    1
   109    72    71    1
   110    78    76   ar
   111    78    80   ar
   112    75    76    1
   113    82    80   ar
   114    76    77   ar
   115    80    79   ar
   116    77    79   ar
