@<TRIPOS>MOLECULE
tmp/3ayqA00.pdb
 236 230 0 0 0
SMALL
GASTEIGER

@<TRIPOS>ATOM
      1  N         12.0050  -10.8850  -10.5080 N.3    18  GLU18      -0.1245
      2  CA        13.0780  -11.2020  -11.4430 C.3    18  GLU18       0.1567
      3  C         13.1590  -12.6470  -11.9120 C.2    18  GLU18       0.2260
      4  O         13.4770  -12.9040  -13.0740 O.2    18  GLU18      -0.2867
      5  CB        14.4300  -10.8240  -10.8320 C.3    18  GLU18       0.0388
      6  CG        14.6040   -9.3470  -10.5220 C.3    18  GLU18       0.1160
      7  CD        14.6200   -8.4800  -11.7610 C.2    18  GLU18       0.3649
      8  OE1       14.8150   -9.0200  -12.8690 O.co2  18  GLU18      -0.2457
      9  OE2       14.4500   -7.2500  -11.6270 O.co2  18  GLU18      -0.2457
     10  N         19.9100  -14.4710  -19.1220 N.3    27  LYS27      -0.1245
     11  CA        19.1880  -14.0760  -20.3220 C.3    27  LYS27       0.1561
     12  C         19.7900  -12.7590  -20.7950 C.2    27  LYS27       0.2260
     13  O         20.3470  -12.0030  -20.0000 O.2    27  LYS27      -0.2867
     14  CB        17.6990  -13.8930  -20.0260 C.3    27  LYS27       0.0271
     15  CG        17.4170  -13.0610  -18.7940 C.3    27  LYS27       0.0035
     16  CD        15.9800  -12.5780  -18.7640 C.3    27  LYS27       0.0206
     17  CE        15.7650  -11.4810  -19.7890 C.3    27  LYS27       0.1093
     18  NZ        14.3980  -10.8990  -19.7280 N.3    27  LYS27      -0.1314
     19  N         19.6940   -8.9890  -22.0430 N.3    29  ASP29      -0.1225
     20  CA        18.8270   -7.8310  -21.8910 C.3    29  ASP29       0.1805
     21  C         19.5430   -6.5390  -22.2480 C.2    29  ASP29       0.2597
     22  O         20.4000   -6.0600  -21.5040 O.2    29  ASP29      -0.2718
     23  CB        18.2910   -7.7300  -20.4630 C.3    29  ASP29       0.1424
     24  CG        17.3740   -6.5320  -20.2730 C.2    29  ASP29       0.3668
     25  OD1       16.2820   -6.5130  -20.8810 O.co2  29  ASP29      -0.2456
     26  OD2       17.7480   -5.6020  -19.5270 O.co2  29  ASP29      -0.2456
     27  N         19.1810   -5.9830  -23.3980 N.am   30  MET30      -0.1979
     28  CA        19.7510   -4.7280  -23.8630 C.3    30  MET30       0.1605
     29  C         21.2720   -4.6790  -23.8660 C.2    30  MET30       0.2287
     30  O         21.8760   -3.7500  -23.3220 O.2    30  MET30      -0.2864
     31  CB        19.1950   -3.5780  -23.0230 C.3    30  MET30       0.0413
     32  CG        17.6870   -3.4150  -23.1480 C.3    30  MET30       0.0598
     33  SD        17.1810   -2.8630  -24.7930 S.3    30  MET30      -0.1393
     34  CE        17.0200   -4.3970  -25.6450 C.3    30  MET30       0.0692
     35  N         23.5410   -6.8610  -22.4240 N.3    32  SER32      -0.1217
     36  CA        24.2730   -7.6470  -21.4400 C.3    32  SER32       0.1889
     37  C         23.4210   -8.6920  -20.7380 C.2    32  SER32       0.2288
     38  O         22.2150   -8.5250  -20.5820 O.2    32  SER32      -0.2866
     39  CB        24.9060   -6.7260  -20.3950 C.3    32  SER32       0.2089
     40  OG        23.9210   -6.1380  -19.5750 O.3    32  SER32      -0.2183
     41  N         21.7880  -10.8410  -17.7900 N.3    34  SER34      -0.1217
     42  CA        21.3060  -10.6210  -16.4310 C.3    34  SER34       0.1889
     43  C         21.2170  -12.0480  -15.8950 C.2    34  SER34       0.2288
     44  O         20.6870  -12.9260  -16.5760 O.2    34  SER34      -0.2866
     45  CB        19.9280   -9.9500  -16.4420 C.3    34  SER34       0.2089
     46  OG        18.9870  -10.7020  -17.1880 O.3    34  SER34      -0.2183
     47  N         18.2810  -12.5400   -8.7230 N.3    38  PHE38      -0.1227
     48  CA        17.9210  -11.1370   -8.8870 C.3    38  PHE38       0.1736
     49  C         18.2270  -10.5770  -10.2720 C.2    38  PHE38       0.2595
     50  O         18.1310   -9.3720  -10.4890 O.2    38  PHE38      -0.2718
     51  CB        18.6160  -10.2830   -7.8170 C.3    38  PHE38       0.0547
     52  CG        18.0690  -10.4880   -6.4310 C.ar   38  PHE38      -0.0202
     53  CD1       18.4350  -11.6000   -5.6770 C.ar   38  PHE38      -0.0042
     54  CD2       17.1520   -9.5880   -5.8950 C.ar   38  PHE38      -0.0042
     55  CE1       17.8930  -11.8150   -4.4090 C.ar   38  PHE38      -0.0003
     56  CE2       16.6040   -9.7920   -4.6290 C.ar   38  PHE38      -0.0003
     57  CZ        16.9730  -10.9070   -3.8870 C.ar   38  PHE38      -0.0000
     58  N         18.5850  -11.4570  -11.2040 N.am   39  GLN39      -0.1965
     59  CA        18.8940  -11.0530  -12.5710 C.3    39  GLN39       0.1733
     60  C         19.8560   -9.8730  -12.6170 C.2    39  GLN39       0.2616
     61  O         19.5770   -8.8380  -13.2210 O.2    39  GLN39      -0.2715
     62  CB        17.5970  -10.7340  -13.3170 C.3    39  GLN39       0.0408
     63  CG        16.7720  -11.9800  -13.5990 C.3    39  GLN39       0.0908
     64  CD        17.4250  -12.8710  -14.6380 C.2    39  GLN39       0.2608
     65  OE1       17.4330  -12.5490  -15.8270 O.2    39  GLN39      -0.2717
     66  NE2       17.9910  -13.9900  -14.1930 N.am   39  GLN39      -0.0878
     67  N         21.0000  -10.0620  -11.9710 N.am   40  ILE40      -0.1963
     68  CA        22.0410   -9.0520  -11.8860 C.3    40  ILE40       0.1727
     69  C         23.0160   -9.1170  -13.0530 C.2    40  ILE40       0.2616
     70  O         23.4910  -10.1910  -13.4260 O.2    40  ILE40      -0.2715
     71  CB        22.8130   -9.2130  -10.5550 C.3    40  ILE40       0.0290
     72  CG1       21.8760   -8.9060   -9.3860 C.3    40  ILE40       0.0022
     73  CG2       24.0150   -8.2930  -10.5140 C.3    40  ILE40       0.0023
     74  CD1       22.4830   -9.1790   -8.0320 C.3    40  ILE40       0.0001
     75  N         23.2910   -7.9590  -13.6410 N.am   41  LYS41      -0.1977
     76  CA        24.2310   -7.8660  -14.7480 C.3    41  LYS41       0.1596
     77  C         25.6360   -7.6920  -14.1700 C.2    41  LYS41       0.2287
     78  O         25.7960   -7.3040  -13.0070 O.2    41  LYS41      -0.2864
     79  CB        23.8670   -6.6800  -15.6370 C.3    41  LYS41       0.0298
     80  CG        22.4930   -6.8030  -16.2700 C.3    41  LYS41       0.0038
     81  CD        22.1490   -5.5660  -17.0860 C.3    41  LYS41       0.0206
     82  CE        20.8810   -5.7830  -17.8980 C.3    41  LYS41       0.1093
     83  NZ        21.0490   -6.9040  -18.8670 N.3    41  LYS41      -0.1314
     84  N         27.9830   -5.4280  -14.6350 N.3    43  ALA43      -0.1231
     85  CA        28.3060   -4.0730  -14.1890 C.3    43  ALA43       0.1694
     86  C         27.7400   -3.7890  -12.8030 C.2    43  ALA43       0.2592
     87  O         28.3690   -3.1160  -11.9880 O.2    43  ALA43      -0.2718
     88  CB        27.7710   -3.0550  -15.1870 C.3    43  ALA43       0.0304
     89  N         26.5390   -4.2980  -12.5500 N.am   44  TYR44      -0.1976
     90  CA        25.8650   -4.1210  -11.2680 C.3    44  TYR44       0.1639
     91  C         26.6730   -4.8600  -10.2030 C.2    44  TYR44       0.2290
     92  O         26.9090   -4.3460   -9.1060 O.2    44  TYR44      -0.2864
     93  CB        24.4450   -4.6970  -11.3730 C.3    44  TYR44       0.0560
     94  CG        23.5360   -4.5070  -10.1730 C.ar   44  TYR44      -0.0198
     95  CD1       23.6690   -5.3000   -9.0380 C.ar   44  TYR44      -0.0009
     96  CD2       22.4920   -3.5790  -10.2080 C.ar   44  TYR44      -0.0009
     97  CE1       22.7780   -5.1870   -7.9650 C.ar   44  TYR44       0.0417
     98  CE2       21.5980   -3.4530   -9.1420 C.ar   44  TYR44       0.0417
     99  CZ        21.7440   -4.2640   -8.0260 C.ar   44  TYR44       0.1957
    100  OH        20.8470   -4.1700   -6.9830 O.3    44  TYR44      -0.2866
    101  N         29.8010   -5.5500  -10.2960 N.3    46  ILE46      -0.1231
    102  CA        31.0560   -4.8400  -10.0820 C.3    46  ILE46       0.1692
    103  C         30.7880   -3.6810   -9.1270 C.2    46  ILE46       0.2592
    104  O         31.5030   -3.4930   -8.1440 O.2    46  ILE46      -0.2718
    105  CB        31.6160   -4.2830  -11.4110 C.3    46  ILE46       0.0266
    106  CG1       32.0580   -5.4400  -12.3080 C.3    46  ILE46       0.0019
    107  CG2       32.7640   -3.3170  -11.1420 C.3    46  ILE46       0.0020
    108  CD1       32.6300   -5.0010  -13.6410 C.3    46  ILE46       0.0001
    109  N         29.7350   -2.9190   -9.4080 N.am   47  ASP47      -0.1974
    110  CA        29.3930   -1.7730   -8.5730 C.3    47  ASP47       0.1709
    111  C         29.0150   -2.1300   -7.1330 C.2    47  ASP47       0.2293
    112  O         29.2020   -1.3140   -6.2320 O.2    47  ASP47      -0.2864
    113  CB        28.2710   -0.9560   -9.2320 C.3    47  ASP47       0.1436
    114  CG        28.7860   -0.0160  -10.3210 C.2    47  ASP47       0.3671
    115  OD1       29.9280   -0.2060  -10.7940 O.co2  47  ASP47      -0.2456
    116  OD2       28.0420    0.9130  -10.7150 O.co2  47  ASP47      -0.2456
    117  N         24.4550   -2.3560   -3.3970 N.3    72  TYR72      -0.1241
    118  CA        24.1660   -1.4400   -4.4990 C.3    72  TYR72       0.1605
    119  C         23.2880   -0.2890   -4.0280 C.2    72  TYR72       0.2264
    120  O         23.4780    0.8580   -4.4340 O.2    72  TYR72      -0.2867
    121  CB        23.4640   -2.1850   -5.6340 C.3    72  TYR72       0.0534
    122  CG        23.4370   -1.4450   -6.9510 C.ar   72  TYR72      -0.0201
    123  CD1       22.3980   -0.5730   -7.2680 C.ar   72  TYR72      -0.0009
    124  CD2       24.4470   -1.6390   -7.8960 C.ar   72  TYR72      -0.0009
    125  CE1       22.3610    0.0840   -8.4980 C.ar   72  TYR72       0.0417
    126  CE2       24.4210   -0.9860   -9.1230 C.ar   72  TYR72       0.0417
    127  CZ        23.3770   -0.1300   -9.4180 C.ar   72  TYR72       0.1957
    128  OH        23.3490    0.4980  -10.6400 O.3    72  TYR72      -0.2866
    129  N         25.1620    2.1210   -1.8660 N.3    75  ARG75      -0.1231
    130  CA        26.0300    2.9510   -2.6840 C.3    75  ARG75       0.1694
    131  C         25.3150    4.0430   -3.4760 C.2    75  ARG75       0.2592
    132  O         25.7690    5.1860   -3.5050 O.2    75  ARG75      -0.2718
    133  CB        26.8360    2.0750   -3.6510 C.3    75  ARG75       0.0321
    134  CG        27.7030    2.8710   -4.6100 C.3    75  ARG75       0.0489
    135  CD        28.5970    1.9770   -5.4460 C.3    75  ARG75       0.2205
    136  NE        29.5650    2.7670   -6.2020 N.pl3  75  ARG75      -0.0865
    137  CZ        30.6010    2.2570   -6.8590 C.cat  75  ARG75       0.5346
    138  NH1       30.8140    0.9490   -6.8610 N.pl3  75  ARG75       0.1354
    139  NH2       31.4310    3.0630   -7.5050 N.pl3  75  ARG75       0.1354
    140  N         24.1880    3.7010   -4.0910 N.am   76  TYR76      -0.1976
    141  CA        23.4640    4.6470   -4.9370 C.3    76  TYR76       0.1639
    142  C         22.1390    5.2700   -4.4950 C.2    76  TYR76       0.2290
    143  O         21.8580    6.4150   -4.8390 O.2    76  TYR76      -0.2864
    144  CB        23.2420    4.0090   -6.3090 C.3    76  TYR76       0.0560
    145  CG        24.5090    3.7750   -7.0940 C.ar   76  TYR76      -0.0198
    146  CD1       25.3740    4.8290   -7.3840 C.ar   76  TYR76      -0.0009
    147  CD2       24.8340    2.5040   -7.5750 C.ar   76  TYR76      -0.0009
    148  CE1       26.5290    4.6260   -8.1360 C.ar   76  TYR76       0.0417
    149  CE2       25.9860    2.2920   -8.3280 C.ar   76  TYR76       0.0417
    150  CZ        26.8270    3.3580   -8.6060 C.ar   76  TYR76       0.1957
    151  OH        27.9540    3.1610   -9.3700 O.3    76  TYR76      -0.2866
    152  N         22.2820    8.6300   -2.6850 N.3    79  TRP79      -0.1241
    153  CA        22.9980    9.4690   -3.6320 C.3    79  TRP79       0.1605
    154  C         22.1060    9.9650   -4.7680 C.2    79  TRP79       0.2264
    155  O         22.1820   11.1330   -5.1570 O.2    79  TRP79      -0.2867
    156  CB        24.1820    8.6890   -4.2070 C.3    79  TRP79       0.0550
    157  CG        24.8820    9.3730   -5.3400 C.ar   79  TRP79       0.0003
    158  CD1       25.7950   10.3880   -5.2570 C.ar   79  TRP79       0.0946
    159  CD2       24.7190    9.0930   -6.7340 C.ar   79  TRP79       0.0152
    160  NE1       26.2120   10.7530   -6.5140 N.ar   79  TRP79      -0.2442
    161  CE2       25.5680    9.9740   -7.4400 C.ar   79  TRP79       0.0810
    162  CE3       23.9380    8.1790   -7.4570 C.ar   79  TRP79       0.0012
    163  CZ2       25.6580    9.9700   -8.8360 C.ar   79  TRP79       0.0191
    164  CZ3       24.0280    8.1740   -8.8420 C.ar   79  TRP79       0.0001
    165  CH2       24.8850    9.0650   -9.5170 C.ar   79  TRP79       0.0015
    166  N         17.1300   -1.0090   -8.7800 N.3    93  HIS93      -0.1226
    167  CA        17.5700   -2.3240   -9.2210 C.3    93  HIS93       0.1752
    168  C         17.3020   -2.5050  -10.7090 C.2    93  HIS93       0.2596
    169  O         18.1410   -3.0140  -11.4480 O.2    93  HIS93      -0.2718
    170  CB        16.8370   -3.4160   -8.4380 C.3    93  HIS93       0.0759
    171  CG        17.3730   -4.7930   -8.6780 C.ar   93  HIS93       0.0818
    172  ND1       18.5990   -5.2070   -8.2030 N.ar   93  HIS93      -0.2268
    173  CD2       16.8560   -5.8440   -9.3580 C.ar   93  HIS93       0.1154
    174  CE1       18.8150   -6.4560   -8.5800 C.ar   93  HIS93       0.1986
    175  NE2       17.7730   -6.8650   -9.2810 N.ar   93  HIS93      -0.2212
    176  N         16.1280   -2.0690  -11.1520 N.am   94  ASN94      -0.1960
    177  CA        15.7640   -2.2210  -12.5490 C.3    94  ASN94       0.1819
    178  C         16.3880   -1.1970  -13.4950 C.2    94  ASN94       0.2622
    179  O         16.7040   -1.5280  -14.6350 O.2    94  ASN94      -0.2715
    180  CB        14.2420   -2.1810  -12.6970 C.3    94  ASN94       0.1195
    181  CG        13.7890   -2.4830  -14.1080 C.2    94  ASN94       0.2630
    182  OD1       14.0490   -3.5680  -14.6440 O.2    94  ASN94      -0.2716
    183  ND2       13.1070   -1.5290  -14.7210 N.am   94  ASN94      -0.0877
    184  N         16.5780    0.0330  -13.0240 N.am   95  GLY95      -0.1940
    185  CA        17.1160    1.0710  -13.8880 C.3    95  GLY95       0.2014
    186  C         18.5300    1.5870  -13.6880 C.2    95  GLY95       0.2639
    187  O         18.9740    2.4540  -14.4390 O.2    95  GLY95      -0.2714
    188  N         19.2450    1.0890  -12.6890 N.am   96  GLY96      -0.1940
    189  CA        20.6040    1.5570  -12.4970 C.3    96  GLY96       0.1999
    190  C         20.8000    2.5960  -11.4110 C.2    96  GLY96       0.2481
    191  O         19.9030    2.8270  -10.6090 O.2    96  GLY96      -0.2729
    192  N         21.9750    3.2520  -11.3740 N.am   97  PRO97      -0.2715
    193  CA        22.3350    4.2790  -10.3900 C.3    97  PRO97       0.1536
    194  C         21.2720    5.3470  -10.1420 C.2    97  PRO97       0.2598
    195  O         21.1190    5.8270   -9.0180 O.2    97  PRO97      -0.2715
    196  CB        23.6200    4.8670  -10.9670 C.3    97  PRO97       0.0310
    197  CG        24.2410    3.6910  -11.6460 C.3    97  PRO97       0.0237
    198  CD        23.0530    3.0920  -12.3660 C.3    97  PRO97       0.0939
    199  N         20.5530    5.7270  -11.1910 N.am   98  ARG98      -0.1978
    200  CA        19.5080    6.7370  -11.0680 C.3    98  ARG98       0.1597
    201  C         18.1860    6.1690  -11.5660 C.2    98  ARG98       0.2287
    202  O         17.3160    6.9030  -12.0360 O.2    98  ARG98      -0.2864
    203  CB        19.8680    7.9870  -11.8790 C.3    98  ARG98       0.0334
    204  CG        21.0980    8.7390  -11.3880 C.3    98  ARG98       0.0492
    205  CD        21.1110   10.1540  -11.9550 C.3    98  ARG98       0.2205
    206  NE        22.2850   10.9250  -11.5430 N.pl3  98  ARG98      -0.0865
    207  CZ        23.5180   10.7090  -11.9880 C.cat  98  ARG98       0.5346
    208  NH1       23.7510    9.7410  -12.8650 N.pl3  98  ARG98       0.1354
    209  NH2       24.5200   11.4650  -11.5570 N.pl3  98  ARG98       0.1354
    210  N         14.0760    7.3480  -13.4350 N.3   102  LYS102     -0.1245
    211  CA        13.7500    7.0360  -14.8250 C.3   102  LYS102      0.1561
    212  C         12.2960    6.6070  -14.9700 C.2   102  LYS102      0.2260
    213  O         11.8210    5.7480  -14.2280 O.2   102  LYS102     -0.2867
    214  CB        14.6360    5.9050  -15.3490 C.3   102  LYS102      0.0271
    215  CG        16.1250    6.1960  -15.3790 C.3   102  LYS102      0.0035
    216  CD        16.8630    5.0160  -16.0030 C.3   102  LYS102      0.0206
    217  CE        18.3640    5.2200  -16.0110 C.3   102  LYS102      0.1093
    218  NZ        19.0620    4.0520  -16.6090 N.3   102  LYS102     -0.1314
    219  N         11.0940    4.7920  -17.1140 N.3   104  SER104     -0.1217
    220  CA        11.0900    3.3940  -17.5270 C.3   104  SER104      0.1889
    221  C         10.7920    2.4370  -16.3710 C.2   104  SER104      0.2288
    222  O         10.1120    1.4280  -16.5460 O.2   104  SER104     -0.2866
    223  CB        12.4490    3.0370  -18.1360 C.3   104  SER104      0.2089
    224  OG        12.5060    1.6740  -18.5130 O.3   104  SER104     -0.2183
    225  N          8.0700   -1.2020  -13.8960 N.3   108  TYR108     -0.1241
    226  CA         8.6580   -2.3050  -13.1500 C.3   108  TYR108      0.1605
    227  C          8.0630   -2.3410  -11.7520 C.2   108  TYR108      0.2264
    228  O          7.7080   -3.4070  -11.2460 O.2   108  TYR108     -0.2867
    229  CB        10.1760   -2.1370  -13.0800 C.3   108  TYR108      0.0534
    230  CG        10.8880   -3.2000  -12.2720 C.ar  108  TYR108     -0.0201
    231  CD1       11.1310   -3.0210  -10.9110 C.ar  108  TYR108     -0.0009
    232  CD2       11.3280   -4.3800  -12.8710 C.ar  108  TYR108     -0.0009
    233  CE1       11.7960   -3.9900  -10.1660 C.ar  108  TYR108      0.0417
    234  CE2       11.9960   -5.3550  -12.1340 C.ar  108  TYR108      0.0417
    235  CZ        12.2270   -5.1540  -10.7840 C.ar  108  TYR108      0.1957
    236  OH        12.8850   -6.1200  -10.0510 O.3   108  TYR108     -0.2866
@<TRIPOS>BOND
     1    34    33    1
     2    33    32    1
     3    29    28    1
     4    29    30    2
     5    28    27    1
     6    28    31    1
     7    27    21   am
     8    32    31    1
     9    35    36    1
    10    21    20    1
    11    21    22    2
    12    19    20    1
    13    20    23    1
    14    36    37    1
    15    36    39    1
    16    25    24   ar
    17    12    11    1
    18    12    13    2
    19    37    38    2
    20    23    24    1
    21    39    40    1
    22    11    14    1
    23    11    10    1
    24    24    26   ar
    25    14    15    1
    26    17    18    1
    27    17    16    1
    28    83    82    1
    29    15    16    1
    30   224   223    1
    31   223   220    1
    32    82    81    1
    33    41    42    1
    34   220   219    1
    35   220   221    1
    36    46    45    1
    37    81    80    1
    38   218   217    1
    39    44    43    2
    40   222   221    2
    41    45    42    1
    42    42    43    1
    43    80    79    1
    44   217   216    1
    45   216   215    1
    46    65    64    2
    47    79    76    1
    48   215   214    1
    49   214   211    1
    50    88    85    1
    51   212   211    1
    52   212   213    2
    53   211   210    1
    54    76    77    1
    55    76    75    1
    56   183   181   am
    57   182   181    2
    58    64    66   am
    59    64    63    1
    60    84    85    1
    61   179   178    2
    62   187   186    2
    63    85    86    1
    64    77    78    2
    65   181   180    1
    66   225   226    1
    67   185   186    1
    68   185   184    1
    69   186   188   am
    70   108   106    1
    71    75    69   am
    72    63    62    1
    73   178   184   am
    74   178   177    1
    75    70    69    2
    76    62    59    1
    77    61    60    2
    78   226   229    1
    79   226   227    1
    80   229   230    1
    81     4     3    2
    82    69    68    1
    83   232   230   ar
    84   232   234   ar
    85     8     7   ar
    86   208   207    1
    87    86    89   am
    88    86    87    2
    89   180   177    1
    90   188   189    1
    91    60    59    1
    92    60    67   am
    93    59    58    1
    94    89    90    1
    95   177   176    1
    96   189   190    1
    97   198   197    1
    98   198   192    1
    99   106   105    1
   100   230   231   ar
   101   234   235   ar
   102   202   201    2
   103   207   209    1
   104   207   206    2
   105    67    68    1
   106   205   206    1
   107   205   204    1
   108     3     2    1
   109    68    71    1
   110   203   204    1
   111   203   200    1
   112     7     9   ar
   113     7     6    1
   114   227   228    2
   115   197   196    1
   116   201   200    1
   117   169   168    2
   118     2     5    1
   119     2     1    1
   120   190   192   am
   121   190   191    2
   122   105   107    1
   123   105   102    1
   124   192   193    1
   125    93    90    1
   126    93    94    1
   127    90    91    1
   128    58    49   am
   129   199   200    1
   130   199   194   am
   131   176   168   am
   132   196   193    1
   133   231   233   ar
   134     5     6    1
   135   115   114   ar
   136   235   233   ar
   137   235   236    1
   138   116   114   ar
   139   168   167    1
   140   128   127    1
   141    71    73    1
   142    71    72    1
   143    50    49    2
   144   193   194    1
   145   114   113    1
   146   101   102    1
   147    49    48    1
   148    96    94   ar
   149    96    98   ar
   150    91    92    2
   151    94    95   ar
   152   194   195    2
   153   102   103    1
   154   165   164   ar
   155   165   163   ar
   156   127   126   ar
   157   127   125   ar
   158   109   103   am
   159   109   110    1
   160    72    74    1
   161   151   150    1
   162   173   175   ar
   163   173   171   ar
   164   175   174   ar
   165   113   110    1
   166   167   166    1
   167   167   170    1
   168    98    99   ar
   169   103   104    2
   170   126   124   ar
   171    95    97   ar
   172    48    47    1
   173    48    51    1
   174   164   162   ar
   175   163   161   ar
   176   171   170    1
   177   171   172   ar
   178   150   149   ar
   179   150   148   ar
   180   174   172   ar
   181   110   111    1
   182   125   123   ar
   183   149   147   ar
   184   148   146   ar
   185    99    97   ar
   186    99   100    1
   187   124   122   ar
   188    51    52    1
   189   147   145   ar
   190   139   137    1
   191   162   159   ar
   192   161   159   ar
   193   161   160   ar
   194   146   145   ar
   195   123   122   ar
   196   111   112    2
   197   145   144    1
   198   122   121    1
   199   138   137    1
   200   137   136    2
   201   159   157   ar
   202   160   158   ar
   203    52    54   ar
   204    52    53   ar
   205   144   141    1
   206   136   135    1
   207    54    56   ar
   208    53    55   ar
   209   121   118    1
   210   135   134    1
   211   157   158   ar
   212   157   156    1
   213   155   154    2
   214   141   142    1
   215   141   140    1
   216   143   142    2
   217   154   153    1
   218    56    57   ar
   219   134   133    1
   220   118   119    1
   221   118   117    1
   222   120   119    2
   223    55    57   ar
   224   156   153    1
   225   140   131   am
   226   133   130    1
   227   153   152    1
   228   132   131    2
   229   131   130    1
   230   130   129    1
