@<TRIPOS>MOLECULE
tmp/3aysA00.pdb
 168 164 0 0 0
SMALL
GASTEIGER

@<TRIPOS>ATOM
      1  N          7.8470   34.8800   -1.3360 N.3    21  ASN21      -0.1240
      2  CA         9.2920   34.6420   -1.5140 C.3    21  ASN21       0.1653
      3  C          9.9390   33.9370   -0.2790 C.2    21  ASN21       0.2266
      4  O         11.0660   34.2650    0.1610 O.2    21  ASN21      -0.2867
      5  CB        10.0460   35.9530   -1.9050 C.3    21  ASN21       0.1155
      6  CG         9.8270   36.3380   -3.3730 C.2    21  ASN21       0.2627
      7  OD1        8.8960   35.8490   -4.0380 O.2    21  ASN21      -0.2716
      8  ND2       10.7130   37.1790   -3.9060 N.am   21  ASN21      -0.0877
      9  N         15.5100   33.1230   -0.8600 N.3    44  TRP44      -0.1241
     10  CA        15.2500   34.3520   -1.5890 C.3    44  TRP44       0.1605
     11  C         15.4130   35.5520   -0.7100 C.2    44  TRP44       0.2264
     12  O         14.8760   36.6080   -1.0030 O.2    44  TRP44      -0.2867
     13  CB        13.9270   34.3520   -2.3710 C.3    44  TRP44       0.0550
     14  CG        13.9770   33.4170   -3.6230 C.ar   44  TRP44       0.0003
     15  CD1       15.0980   32.8330   -4.1610 C.ar   44  TRP44       0.0946
     16  CD2       12.8980   33.0230   -4.4730 C.ar   44  TRP44       0.0152
     17  NE1       14.7830   32.0920   -5.2580 N.ar   44  TRP44      -0.2442
     18  CE2       13.4410   32.1700   -5.4720 C.ar   44  TRP44       0.0810
     19  CE3       11.5200   33.3000   -4.4900 C.ar   44  TRP44       0.0012
     20  CZ2       12.6600   31.6020   -6.4800 C.ar   44  TRP44       0.0191
     21  CZ3       10.7380   32.7360   -5.4890 C.ar   44  TRP44       0.0001
     22  CH2       11.2930   31.8820   -6.4600 C.ar   44  TRP44       0.0015
     23  N          2.5930   26.1290   -4.9550 N.3   110  HIS110     -0.1226
     24  CA         2.9180   27.4360   -5.5390 C.3   110  HIS110      0.1752
     25  C          3.7030   27.3240   -6.8340 C.2   110  HIS110      0.2596
     26  O          3.1290   26.9800   -7.8590 O.2   110  HIS110     -0.2718
     27  CB         3.6170   28.3470   -4.5300 C.3   110  HIS110      0.0759
     28  CG         3.4260   29.7970   -4.8250 C.ar  110  HIS110      0.0818
     29  ND1        2.2390   30.4460   -4.5700 N.ar  110  HIS110     -0.2268
     30  CD2        4.2450   30.7100   -5.4030 C.ar  110  HIS110      0.1154
     31  CE1        2.3450   31.7120   -4.9410 C.ar  110  HIS110      0.1986
     32  NE2        3.5560   31.9060   -5.4410 N.ar  110  HIS110     -0.2212
     33  N          5.0230   27.5120   -6.7690 N.am  111  HIS111     -0.1975
     34  CA         5.8760   27.4930   -7.9760 C.3   111  HIS111      0.1656
     35  C          6.2670   26.0370   -8.3410 C.2   111  HIS111      0.2291
     36  O          7.4620   25.7140   -8.4690 O.2   111  HIS111     -0.2864
     37  CB         7.1660   28.2840   -7.7370 C.3   111  HIS111      0.0771
     38  CG         6.9770   29.7600   -7.5620 C.ar  111  HIS111      0.0820
     39  ND1        6.1660   30.5230   -8.3770 N.ar  111  HIS111     -0.2267
     40  CD2        7.4920   30.6150   -6.6500 C.ar  111  HIS111      0.1154
     41  CE1        6.2060   31.7830   -7.9910 C.ar  111  HIS111      0.1986
     42  NE2        7.0110   31.8700   -6.9440 N.ar  111  HIS111     -0.2212
     43  N         -1.7610   27.4150   -7.6820 N.3   153  ASN153     -0.1225
     44  CA        -1.5510   28.8580   -7.5540 C.3   153  ASN153      0.1785
     45  C         -2.0240   29.5460   -8.8220 C.2   153  ASN153      0.2597
     46  O         -3.1230   30.0900   -8.8760 O.2   153  ASN153     -0.2718
     47  CB        -0.0580   29.1480   -7.2590 C.3   153  ASN153      0.1169
     48  CG         0.2700   30.6460   -7.2670 C.2   153  ASN153      0.2627
     49  OD1       -0.4410   31.4500   -6.6490 O.2   153  ASN153     -0.2716
     50  ND2        1.3480   31.0300   -7.9610 N.am  153  ASN153     -0.0877
     51  N         -1.2020   29.4760   -9.8650 N.am  154  ALA154     -0.1979
     52  CA        -1.4390   30.1690  -11.1360 C.3   154  ALA154      0.1597
     53  C         -1.0870   29.2100  -12.2990 C.2   154  ALA154      0.2287
     54  O         -0.1730   29.4780  -13.0970 O.2   154  ALA154     -0.2864
     55  CB        -0.5810   31.4440  -11.1960 C.3   154  ALA154      0.0319
     56  N         -0.7010   27.3070  -15.6560 N.3   156  ARG156     -0.1245
     57  CA        -0.7380   28.0170  -16.9280 C.3   156  ARG156      0.1563
     58  C          0.2460   27.3360  -17.8730 C.2   156  ARG156      0.2260
     59  O          0.9820   26.4470  -17.4510 O.2   156  ARG156     -0.2867
     60  CB        -0.3180   29.4830  -16.7270 C.3   156  ARG156      0.0307
     61  CG         1.0060   29.6270  -16.0580 C.3   156  ARG156      0.0489
     62  CD         1.3030   31.0720  -15.5890 C.3   156  ARG156      0.2205
     63  NE         2.7120   31.1960  -15.1780 N.pl3 156  ARG156     -0.0865
     64  CZ         3.2260   30.7370  -14.0310 C.cat 156  ARG156      0.5346
     65  NH1        2.4650   30.0880  -13.1620 N.pl3 156  ARG156      0.1354
     66  NH2        4.5360   30.9030  -13.7490 N.pl3 156  ARG156      0.1354
     67  N          0.2330   34.1860  -20.1730 N.3   164  TRP164     -0.1241
     68  CA        -0.2930   35.2710  -19.3550 C.3   164  TRP164      0.1605
     69  C         -1.5230   35.9780  -19.9210 C.2   164  TRP164      0.2264
     70  O         -2.1540   36.7620  -19.2020 O.2   164  TRP164     -0.2867
     71  CB         0.8170   36.2800  -19.0670 C.3   164  TRP164      0.0550
     72  CG         1.8960   35.7600  -18.1050 C.ar  164  TRP164      0.0003
     73  CD1        3.2360   35.6380  -18.3490 C.ar  164  TRP164      0.0946
     74  CD2        1.7000   35.3350  -16.7420 C.ar  164  TRP164      0.0152
     75  NE1        3.8900   35.1480  -17.2230 N.ar  164  TRP164     -0.2442
     76  CE2        2.9640   34.9650  -16.2250 C.ar  164  TRP164      0.0810
     77  CE3        0.5810   35.2680  -15.9040 C.ar  164  TRP164      0.0012
     78  CZ2        3.1350   34.5220  -14.9020 C.ar  164  TRP164      0.0191
     79  CZ3        0.7490   34.7940  -14.6190 C.ar  164  TRP164      0.0001
     80  CH2        2.0170   34.4120  -14.1320 C.ar  164  TRP164      0.0015
     81  N         -5.8260   36.4490   -8.7620 N.3   229  HIS229     -0.1241
     82  CA        -4.7680   37.3840   -8.4700 C.3   229  HIS229      0.1621
     83  C         -4.9270   38.6090   -9.3750 C.2   229  HIS229      0.2264
     84  O         -5.1590   38.4570  -10.5910 O.2   229  HIS229     -0.2867
     85  CB        -3.4090   36.7180   -8.7900 C.3   229  HIS229      0.0745
     86  CG        -3.1450   35.5040   -7.9590 C.ar  229  HIS229      0.0817
     87  ND1       -2.1230   34.6270   -8.2260 N.ar  229  HIS229     -0.2268
     88  CD2       -3.7800   35.0260   -6.8530 C.ar  229  HIS229      0.1154
     89  CE1       -2.1420   33.6520   -7.3270 C.ar  229  HIS229      0.1986
     90  NE2       -3.1380   33.8680   -6.4830 N.ar  229  HIS229     -0.2212
     91  N         -3.0420   42.1780   -9.9160 N.3   231  TYR231     -0.1241
     92  CA        -2.1800   43.3210   -9.6960 C.3   231  TYR231      0.1605
     93  C         -2.5630   44.4450  -10.6520 C.2   231  TYR231      0.2264
     94  O         -1.7910   44.8340  -11.4960 O.2   231  TYR231     -0.2867
     95  CB        -0.7280   42.9280   -9.9550 C.3   231  TYR231      0.0534
     96  CG        -0.2030   41.8740   -8.9880 C.ar  231  TYR231     -0.0201
     97  CD1        0.5030   42.2320   -7.8300 C.ar  231  TYR231     -0.0009
     98  CD2       -0.4460   40.5140   -9.2220 C.ar  231  TYR231     -0.0009
     99  CE1        1.0330   41.2390   -6.9520 C.ar  231  TYR231      0.0417
    100  CE2        0.0440   39.5170   -8.3470 C.ar  231  TYR231      0.0417
    101  CZ         0.8100   39.9020   -7.2490 C.ar  231  TYR231      0.1957
    102  OH         1.2950   38.9300   -6.4380 O.3   231  TYR231     -0.2866
    103  N          2.5660   46.5520  -11.3190 N.3   238  LEU238     -0.1245
    104  CA         3.4460   45.4090  -11.5600 C.3   238  LEU238      0.1561
    105  C          4.4390   45.6380  -12.7160 C.2   238  LEU238      0.2260
    106  O          5.5350   45.0990  -12.6860 O.2   238  LEU238     -0.2867
    107  CB         2.5920   44.1530  -11.8110 C.3   238  LEU238      0.0270
    108  CG         3.3220   42.8280  -12.0810 C.3   238  LEU238      0.0019
    109  CD1        4.4430   42.5200  -11.1160 C.3   238  LEU238      0.0001
    110  CD2        2.3310   41.6910  -12.0680 C.3   238  LEU238      0.0001
    111  N         -3.8990   37.4690   -4.2140 N.3   278  GLU278     -0.1245
    112  CA        -2.6680   38.2600   -4.3920 C.3   278  GLU278      0.1567
    113  C         -3.0410   39.5380   -5.1210 C.2   278  GLU278      0.2260
    114  O         -3.8850   39.5170   -6.0680 O.2   278  GLU278     -0.2867
    115  CB        -1.5950   37.5550   -5.2730 C.3   278  GLU278      0.0388
    116  CG        -1.0190   36.2480   -4.7860 C.3   278  GLU278      0.1160
    117  CD         0.1370   35.7490   -5.6450 C.2   278  GLU278      0.3649
    118  OE1        0.6520   36.5010   -6.5400 O.co2 278  GLU278     -0.2457
    119  OE2        0.5300   34.5700   -5.4630 O.co2 278  GLU278     -0.2457
    120  N          0.4210   40.9580   -1.5430 N.3   311  TRP311     -0.1241
    121  CA         1.6010   40.1550   -1.9020 C.3   311  TRP311      0.1605
    122  C          2.8670   40.8040   -1.3680 C.2   311  TRP311      0.2264
    123  O          3.2210   41.9080   -1.7910 O.2   311  TRP311     -0.2867
    124  CB         1.7260   39.9600   -3.4110 C.3   311  TRP311      0.0550
    125  CG         2.9680   39.1950   -3.7740 C.ar  311  TRP311      0.0003
    126  CD1        4.0930   39.6640   -4.3840 C.ar  311  TRP311      0.0946
    127  CD2        3.1790   37.8010   -3.5290 C.ar  311  TRP311      0.0152
    128  NE1        5.0140   38.6190   -4.5270 N.ar  311  TRP311     -0.2442
    129  CE2        4.4750   37.4750   -3.9960 C.ar  311  TRP311      0.0810
    130  CE3        2.3760   36.7790   -2.9710 C.ar  311  TRP311      0.0012
    131  CZ2        5.0020   36.1530   -3.9160 C.ar  311  TRP311      0.0191
    132  CZ3        2.9020   35.4730   -2.9070 C.ar  311  TRP311      0.0001
    133  CH2        4.1940   35.1730   -3.3740 C.ar  311  TRP311      0.0015
    134  N          6.7770   40.3230   -0.8470 N.3   313  ASN313     -0.1240
    135  CA         7.8540   39.4120   -1.1970 C.3   313  ASN313      0.1653
    136  C          9.0960   39.7220   -0.4080 C.2   313  ASN313      0.2266
    137  O         10.1490   39.1270   -0.6570 O.2   313  ASN313     -0.2867
    138  CB         8.1620   39.3960   -2.7120 C.3   313  ASN313      0.1155
    139  CG         8.5880   40.7300   -3.2370 C.2   313  ASN313      0.2627
    140  OD1        8.4910   41.7680   -2.5710 O.2   313  ASN313     -0.2716
    141  ND2        9.0130   40.7270   -4.4730 N.am  313  ASN313     -0.0877
    142  N         10.7510   42.5740   -0.6140 N.3   315  VAL315     -0.1245
    143  CA        11.7430   43.3200   -1.4100 C.3   315  VAL315      0.1561
    144  C         11.3460   44.8120   -1.4430 C.2   315  VAL315      0.2260
    145  O         10.1850   45.1460   -1.7000 O.2   315  VAL315     -0.2867
    146  CB        11.8300   42.8130   -2.8790 C.3   315  VAL315      0.0252
    147  CG1       12.7830   43.7440   -3.7230 C.3   315  VAL315      0.0019
    148  CG2       12.3380   41.3540   -2.9990 C.3   315  VAL315      0.0019
    149  N         10.9030   43.1990   -8.4410 N.3   321  GLU321     -0.1245
    150  CA         9.5700   43.5640   -7.9210 C.3   321  GLU321      0.1567
    151  C          9.6140   43.9720   -6.4560 C.2   321  GLU321      0.2260
    152  O         10.0690   43.2030   -5.6260 O.2   321  GLU321     -0.2867
    153  CB         8.5770   42.4140   -8.1470 C.3   321  GLU321      0.0388
    154  CG         8.6090   41.9530   -9.6000 C.3   321  GLU321      0.1160
    155  CD         7.7540   40.7400   -9.8540 C.2   321  GLU321      0.3649
    156  OE1        7.1010   40.1950   -8.9360 O.co2 321  GLU321     -0.2457
    157  OE2        7.6820   40.3560  -11.0100 O.co2 321  GLU321     -0.2457
    158  N          7.6530   44.5500   -3.5910 N.3   323  PHE323     -0.1241
    159  CA         6.3460   44.4560   -2.9370 C.3   323  PHE323      0.1605
    160  C          6.3850   44.4220   -1.4030 C.2   323  PHE323      0.2264
    161  O          5.3780   44.2100   -0.7800 O.2   323  PHE323     -0.2867
    162  CB         5.5410   43.2550   -3.4610 C.3   323  PHE323      0.0534
    163  CG         5.0310   43.4570   -4.8700 C.ar  323  PHE323     -0.0203
    164  CD1        3.9680   44.3230   -5.1350 C.ar  323  PHE323     -0.0042
    165  CD2        5.5920   42.7390   -5.9210 C.ar  323  PHE323     -0.0042
    166  CE1        3.4820   44.4860   -6.4450 C.ar  323  PHE323     -0.0003
    167  CE2        5.1200   42.8840   -7.2460 C.ar  323  PHE323     -0.0003
    168  CZ         4.0640   43.7840   -7.4940 C.ar  323  PHE323     -0.0000
@<TRIPOS>BOND
     1    67    68    1
     2    69    68    1
     3    69    70    2
     4    68    71    1
     5    71    72    1
     6    73    72   ar
     7    73    75   ar
     8    72    74   ar
     9    58    59    2
    10    58    57    1
    11    75    76   ar
    12    57    60    1
    13    57    56    1
    14    74    76   ar
    15    74    77   ar
    16    60    61    1
    17    76    78   ar
    18    61    62    1
    19    77    79   ar
    20    62    63    1
    21    63    64    2
    22    78    80   ar
    23    79    80   ar
    24    64    66    1
    25    64    65    1
    26    54    53    2
    27   105   106    2
    28   105   104    1
    29    53    52    1
    30   108   110    1
    31   108   107    1
    32   108   109    1
    33   107   104    1
    34   104   103    1
    35    94    93    2
    36    55    52    1
    37    52    51    1
    38   157   155   ar
    39    93    92    1
    40    84    83    2
    41    95    92    1
    42    95    96    1
    43    91    92    1
    44    51    45   am
    45   155   154    1
    46   155   156   ar
    47   154   153    1
    48    83    82    1
    49    98    96   ar
    50    98   100   ar
    51    96    97   ar
    52    46    45    2
    53    45    44    1
    54    85    82    1
    55    85    86    1
    56    81    82    1
    57    36    35    2
    58   149   150    1
    59    39    41   ar
    60    39    38   ar
    61   100   101   ar
    62    35    34    1
    63    87    86   ar
    64    87    89   ar
    65   153   150    1
    66    41    42   ar
    67    34    37    1
    68    34    33    1
    69    50    48   am
    70    86    88   ar
    71   150   151    1
    72    26    25    2
    73    97    99   ar
    74    37    38    1
    75    43    44    1
    76    38    40   ar
    77    44    47    1
    78   168   167   ar
    79   168   166   ar
    80    89    90   ar
    81    48    47    1
    82    48    49    2
    83   101    99   ar
    84   101   102    1
    85   167   165   ar
    86    42    40   ar
    87    88    90   ar
    88    25    33   am
    89    25    24    1
    90   118   117   ar
    91    20    22   ar
    92    20    18   ar
    93    22    21   ar
    94   151   152    2
    95   166   164   ar
    96   114   113    2
    97   165   163   ar
    98   117   119   ar
    99   117   116    1
   100    24    23    1
   101    24    27    1
   102    21    19   ar
   103    18    17   ar
   104    18    16   ar
   105    32    30   ar
   106    32    31   ar
   107    30    28   ar
   108   115   116    1
   109   115   112    1
   110    17    15   ar
   111   164   163   ar
   112   113   112    1
   113    31    29   ar
   114   163   162    1
   115    28    29   ar
   116    28    27    1
   117   128   126   ar
   118   128   129   ar
   119    19    16   ar
   120   141   139   am
   121    16    14   ar
   122   112   111    1
   123   126   125   ar
   124    15    14   ar
   125     7     6    2
   126   129   131   ar
   127   129   127   ar
   128   131   133   ar
   129     8     6   am
   130   125   127   ar
   131   125   124    1
   132   147   146    1
   133    14    13    1
   134   158   159    1
   135   127   130   ar
   136   162   159    1
   137   124   121    1
   138   133   132   ar
   139     6     5    1
   140   139   138    1
   141   139   140    2
   142   148   146    1
   143   130   132   ar
   144   159   160    1
   145   146   143    1
   146   138   135    1
   147    13    10    1
   148     5     2    1
   149   121   120    1
   150   121   122    1
   151   123   122    2
   152   145   144    2
   153    10     9    1
   154    10    11    1
   155     2     1    1
   156     2     3    1
   157   144   143    1
   158   143   142    1
   159   160   161    2
   160   135   134    1
   161   135   136    1
   162    12    11    2
   163   137   136    2
   164     3     4    2
