@<TRIPOS>MOLECULE
tmp/3az8C00.pdb
 103 105 0 0 0
SMALL
GASTEIGER

@<TRIPOS>ATOM
      1  N         28.6040  -23.0590   45.0030 N.3    49  HIS49      -0.1226
      2  CA        27.9470  -23.5490   46.1970 C.3    49  HIS49       0.1752
      3  C         28.9640  -24.2260   47.1260 C.2    49  HIS49       0.2596
      4  O         29.0120  -25.4580   47.2200 O.2    49  HIS49      -0.2718
      5  CB        26.8420  -24.5160   45.7970 C.3    49  HIS49       0.0759
      6  CG        25.9270  -24.8900   46.9120 C.ar   49  HIS49       0.0818
      7  ND1       26.2590  -25.8360   47.8540 N.ar   49  HIS49      -0.2268
      8  CD2       24.6790  -24.4710   47.2180 C.ar   49  HIS49       0.1154
      9  CE1       25.2570  -25.9770   48.7010 C.ar   49  HIS49       0.1986
     10  NE2       24.2890  -25.1560   48.3400 N.ar   49  HIS49      -0.2212
     11  N         29.7710  -23.4280   47.8280 N.am   50  PHE50      -0.1976
     12  CA        29.7460  -21.9660   47.7610 C.3    50  PHE50       0.1639
     13  C         31.1880  -21.5430   47.5780 C.2    50  PHE50       0.2290
     14  O         32.0790  -22.3510   47.8230 O.2    50  PHE50      -0.2864
     15  CB        29.1980  -21.3640   49.0550 C.3    50  PHE50       0.0560
     16  CG        27.8020  -21.7940   49.3950 C.ar   50  PHE50      -0.0200
     17  CD1       26.7120  -21.0300   49.0070 C.ar   50  PHE50      -0.0042
     18  CD2       27.5810  -22.9550   50.1340 C.ar   50  PHE50      -0.0042
     19  CE1       25.4190  -21.4210   49.3400 C.ar   50  PHE50      -0.0003
     20  CE2       26.2890  -23.3580   50.4740 C.ar   50  PHE50      -0.0003
     21  CZ        25.2080  -22.5920   50.0800 C.ar   50  PHE50      -0.0000
     22  N         30.2640  -27.1330   49.9840 N.3    55  ILE55      -0.1231
     23  CA        29.3610  -28.1340   50.5100 C.3    55  ILE55       0.1692
     24  C         28.5030  -28.6210   49.3550 C.2    55  ILE55       0.2592
     25  O         27.8990  -27.8120   48.6590 O.2    55  ILE55      -0.2718
     26  CB        28.4480  -27.5290   51.6120 C.3    55  ILE55       0.0266
     27  CG1       29.2800  -27.0020   52.7890 C.3    55  ILE55       0.0019
     28  CG2       27.3830  -28.5440   52.0790 C.3    55  ILE55       0.0020
     29  CD1       28.6620  -25.8140   53.4860 C.3    55  ILE55       0.0001
     30  N         28.4600  -29.9340   49.1480 N.am   56  MET56      -0.1966
     31  CA        27.6460  -30.5220   48.0870 C.3    56  MET56       0.1721
     32  C         26.1710  -30.2210   48.3040 C.2    56  MET56       0.2458
     33  O         25.6240  -30.5580   49.3550 O.2    56  MET56      -0.2730
     34  CB        27.8450  -32.0340   48.0150 C.3    56  MET56       0.0427
     35  CG        26.8720  -32.7170   47.0740 C.3    56  MET56       0.0599
     36  SD        27.1170  -34.4850   46.9730 S.3    56  MET56      -0.1393
     37  CE        26.0760  -34.8900   45.5430 C.3    56  MET56       0.0692
     38  N         25.5200  -29.5980   47.3050 N.am   57  PRO57      -0.2716
     39  CA        24.1140  -29.2470   47.3960 C.3    57  PRO57       0.1536
     40  C         23.2380  -30.4300   47.7850 C.2    57  PRO57       0.2599
     41  O         23.3240  -31.4950   47.1670 O.2    57  PRO57      -0.2715
     42  CB        23.7860  -28.8030   45.9720 C.3    57  PRO57       0.0310
     43  CG        25.0360  -28.2570   45.4730 C.3    57  PRO57       0.0237
     44  CD        26.0960  -29.1490   46.0270 C.3    57  PRO57       0.0939
     45  N         22.4080  -30.2290   48.8050 N.am   58  GLY58      -0.1941
     46  CA        21.4480  -31.2300   49.2480 C.3    58  GLY58       0.2014
     47  C         20.5510  -31.8150   48.1650 C.2    58  GLY58       0.2638
     48  O         20.2770  -33.0220   48.1700 O.2    58  GLY58      -0.2714
     49  N         20.0970  -30.9670   47.2420 N.am   59  VAL59      -0.1977
     50  CA        19.2530  -31.4140   46.1270 C.3    59  VAL59       0.1596
     51  C         19.9810  -32.3810   45.2010 C.2    59  VAL59       0.2287
     52  O         19.3530  -33.2160   44.5530 O.2    59  VAL59      -0.2864
     53  CB        18.6520  -30.2390   45.3050 C.3    59  VAL59       0.0276
     54  CG1       17.5640  -29.5140   46.1110 C.3    59  VAL59       0.0022
     55  CG2       19.7430  -29.2640   44.8570 C.3    59  VAL59       0.0022
     56  N         22.2320  -34.5370   46.3580 N.3    61  GLN61      -0.1245
     57  CA        22.2760  -35.7970   47.1230 C.3    61  GLN61       0.1566
     58  C         20.9650  -36.5730   46.9830 C.2    61  GLN61       0.2260
     59  O         20.9550  -37.8030   47.0190 O.2    61  GLN61      -0.2867
     60  CB        22.5740  -35.5290   48.5860 C.3    61  GLN61       0.0367
     61  CG        23.9240  -34.9030   48.8330 C.3    61  GLN61       0.0905
     62  CD        24.1140  -34.4910   50.2740 C.2    61  GLN61       0.2608
     63  OE1       23.5710  -35.1120   51.1800 O.2    61  GLN61      -0.2717
     64  NE2       24.8940  -33.4380   50.4950 N.am   61  GLN61      -0.0878
     65  N         18.4820  -33.8200   55.7830 N.3    95  TRP95      -0.1227
     66  CA        19.9420  -33.7600   55.7340 C.3    95  TRP95       0.1737
     67  C         20.5070  -33.6090   57.1320 C.2    95  TRP95       0.2595
     68  O         20.1290  -32.6930   57.8630 O.2    95  TRP95      -0.2718
     69  CB        20.4140  -32.6040   54.8650 C.3    95  TRP95       0.0564
     70  CG        20.1010  -32.7940   53.4340 C.ar   95  TRP95       0.0003
     71  CD1       20.7530  -33.6000   52.5470 C.ar   95  TRP95       0.0946
     72  CD2       19.0480  -32.1660   52.7110 C.ar   95  TRP95       0.0152
     73  NE1       20.1640  -33.5110   51.3160 N.ar   95  TRP95      -0.2442
     74  CE2       19.1140  -32.6340   51.3890 C.ar   95  TRP95       0.0810
     75  CE3       18.0530  -31.2500   53.0530 C.ar   95  TRP95       0.0012
     76  CZ2       18.2210  -32.2160   50.4080 C.ar   95  TRP95       0.0191
     77  CZ3       17.1690  -30.8400   52.0810 C.ar   95  TRP95       0.0001
     78  CH2       17.2590  -31.3170   50.7760 C.ar   95  TRP95       0.0015
     79  N         21.4160  -34.5120   57.4930 N.am   96  LYS96      -0.1966
     80  CA        21.9930  -34.5620   58.8440 C.3    96  LYS96       0.1728
     81  C         23.3570  -33.8740   58.9130 C.2    96  LYS96       0.2616
     82  O         23.5800  -32.9890   59.7430 O.2    96  LYS96      -0.2715
     83  CB        22.1250  -36.0160   59.3290 C.3    96  LYS96       0.0311
     84  CG        20.9740  -36.9380   58.9530 C.3    96  LYS96       0.0038
     85  CD        19.6570  -36.5260   59.6030 C.3    96  LYS96       0.0206
     86  CE        18.5840  -37.5430   59.2840 C.3    96  LYS96       0.1093
     87  NZ        17.3140  -37.2330   59.9950 N.3    96  LYS96      -0.1314
     88  N         24.2590  -34.2990   58.0330 N.am   97  LYS97      -0.1964
     89  CA        25.6360  -33.8410   58.0360 C.3    97  LYS97       0.1713
     90  C         25.9850  -33.3120   56.6470 C.2    97  LYS97       0.2458
     91  O         25.3980  -33.7530   55.6490 O.2    97  LYS97      -0.2730
     92  CB        26.5600  -35.0100   58.3840 C.3    97  LYS97       0.0311
     93  CG        27.8170  -34.6210   59.2110 C.3    97  LYS97       0.0038
     94  CD        29.0450  -35.4770   58.8070 C.3    97  LYS97       0.0206
     95  CE        29.8560  -35.9740   60.0230 C.3    97  LYS97       0.1093
     96  NZ        30.1600  -34.9210   61.0520 N.3    97  LYS97      -0.1314
     97  N         26.9220  -32.3510   56.5760 N.am   98  PRO98      -0.2727
     98  CA        27.4530  -31.8660   55.3060 C.3    98  PRO98       0.1402
     99  C         28.3100  -32.8940   54.5530 C.2    98  PRO98       0.2269
    100  O         29.0760  -33.6370   55.1650 O.2    98  PRO98      -0.2865
    101  CB        28.3170  -30.6750   55.7250 C.3    98  PRO98       0.0296
    102  CG        27.7340  -30.2180   56.9950 C.3    98  PRO98       0.0237
    103  CD        27.2900  -31.4670   57.6960 C.3    98  PRO98       0.0939
@<TRIPOS>BOND
     1    52    51    2
     2    55    53    1
     3     1     2    1
     4    51    50    1
     5    53    54    1
     6    53    50    1
     7    43    42    1
     8    43    44    1
     9    37    36    1
    10     5     2    1
    11     5     6    1
    12    42    39    1
    13    44    38    1
    14    50    49    1
    15     2     3    1
    16    56    57    1
    17     6     8   ar
    18     6     7   ar
    19    36    35    1
    20    58    59    2
    21    58    57    1
    22    35    34    1
    23    57    60    1
    24     3     4    2
    25     3    11   am
    26    41    40    2
    27     8    10   ar
    28    49    47   am
    29    38    39    1
    30    38    32   am
    31    39    40    1
    32    13    12    1
    33    13    14    2
    34    12    11    1
    35    12    15    1
    36    40    45   am
    37     7     9   ar
    38    34    31    1
    39    31    32    1
    40    31    30    1
    41    47    48    2
    42    47    46    1
    43    32    33    2
    44    10     9   ar
    45    60    61    1
    46    25    24    2
    47    45    46    1
    48    61    62    1
    49    17    19   ar
    50    17    16   ar
    51    15    16    1
    52    30    24   am
    53    19    21   ar
    54    24    23    1
    55    16    18   ar
    56    22    23    1
    57    21    20   ar
    58    18    20   ar
    59    62    64   am
    60    62    63    2
    61    76    78   ar
    62    76    74   ar
    63    23    26    1
    64    78    77   ar
    65    73    74   ar
    66    73    71   ar
    67    74    72   ar
    68    26    28    1
    69    26    27    1
    70    77    75   ar
    71    71    70   ar
    72    72    75   ar
    73    72    70   ar
    74    27    29    1
    75    70    69    1
    76    99   100    2
    77    99    98    1
    78    69    66    1
    79    98   101    1
    80    98    97    1
    81    91    90    2
    82   101   102    1
    83    66    65    1
    84    66    67    1
    85    97    90   am
    86    97   103    1
    87    90    89    1
    88   102   103    1
    89    67    79   am
    90    67    68    2
    91    79    80    1
    92    88    89    1
    93    88    81   am
    94    89    92    1
    95    92    93    1
    96    94    93    1
    97    94    95    1
    98    80    81    1
    99    80    83    1
   100    81    82    2
   101    84    83    1
   102    84    85    1
   103    86    85    1
   104    86    87    1
   105    95    96    1
