@<TRIPOS>MOLECULE
tmp/3az8D00.pdb
 97 94 0 0 0
SMALL
GASTEIGER

@<TRIPOS>ATOM
      1  N         21.9350  -13.8280   49.2050 N.3    13  LEU13      -0.1245
      2  CA        22.3180  -15.2260   49.0740 C.3    13  LEU13       0.1561
      3  C         23.7870  -15.2850   48.7060 C.2    13  LEU13       0.2260
      4  O         24.2560  -14.4390   47.9360 O.2    13  LEU13      -0.2867
      5  CB        21.4810  -15.9310   48.0040 C.3    13  LEU13       0.0270
      6  CG        19.9730  -16.1550   48.2090 C.3    13  LEU13       0.0019
      7  CD1       19.3770  -16.7020   46.9300 C.3    13  LEU13       0.0001
      8  CD2       19.6740  -17.1000   49.3780 C.3    13  LEU13       0.0001
      9  N         25.0520  -17.8280   47.1660 N.3    15  HIS15      -0.1241
     10  CA        25.0860  -18.7080   46.0210 C.3    15  HIS15       0.1621
     11  C         25.5620  -17.9850   44.7640 C.2    15  HIS15       0.2264
     12  O         25.2670  -16.8070   44.5740 O.2    15  HIS15      -0.2867
     13  CB        23.6810  -19.2530   45.7740 C.3    15  HIS15       0.0745
     14  CG        23.0910  -19.9900   46.9390 C.ar   15  HIS15       0.0817
     15  ND1       22.5990  -19.3480   48.0560 N.ar   15  HIS15      -0.2268
     16  CD2       22.8720  -21.3150   47.1380 C.ar   15  HIS15       0.1154
     17  CE1       22.1190  -20.2460   48.9010 C.ar   15  HIS15       0.1986
     18  NE2       22.2690  -21.4470   48.3660 N.ar   15  HIS15      -0.2212
     19  N         24.8770  -22.2930   40.2560 N.3    19  PHE19      -0.1241
     20  CA        23.9260  -22.8300   41.2100 C.3    19  PHE19       0.1605
     21  C         23.2010  -21.7170   41.9550 C.2    19  PHE19       0.2264
     22  O         22.8850  -21.8400   43.1540 O.2    19  PHE19      -0.2867
     23  CB        24.6410  -23.7650   42.1890 C.3    19  PHE19       0.0534
     24  CG        23.8280  -24.9510   42.5830 C.ar   19  PHE19      -0.0203
     25  CD1       23.8140  -26.0880   41.7770 C.ar   19  PHE19      -0.0042
     26  CD2       23.0720  -24.9430   43.7470 C.ar   19  PHE19      -0.0042
     27  CE1       23.0550  -27.2030   42.1240 C.ar   19  PHE19      -0.0003
     28  CE2       22.3130  -26.0510   44.1030 C.ar   19  PHE19      -0.0003
     29  CZ        22.2990  -27.1820   43.2840 C.ar   19  PHE19      -0.0000
     30  N         15.5310  -26.4230   44.6760 N.3    64  GLU64      -0.1245
     31  CA        16.5830  -25.4850   45.0350 C.3    64  GLU64       0.1567
     32  C         16.1930  -24.0470   44.7280 C.2    64  GLU64       0.2260
     33  O         16.5090  -23.1440   45.4920 O.2    64  GLU64      -0.2867
     34  CB        17.8860  -25.8450   44.3210 C.3    64  GLU64       0.0388
     35  CG        19.0540  -24.8950   44.5900 C.3    64  GLU64       0.1160
     36  CD        19.6190  -25.0120   45.9990 C.2    64  GLU64       0.3649
     37  OE1       19.4610  -26.0900   46.6280 O.co2  64  GLU64      -0.2457
     38  OE2       20.2300  -24.0210   46.4730 O.co2  64  GLU64      -0.2457
     39  N         13.8240  -23.0770   47.2820 N.3    67  ALA67      -0.1231
     40  CA        14.5980  -23.0750   48.5250 C.3    67  ALA67       0.1694
     41  C         15.4040  -21.7950   48.6970 C.2    67  ALA67       0.2591
     42  O         15.4580  -21.2210   49.7930 O.2    67  ALA67      -0.2718
     43  CB        15.5290  -24.2820   48.5750 C.3    67  ALA67       0.0304
     44  N         16.0380  -21.3570   47.6140 N.am   68  GLN68      -0.1979
     45  CA        16.8320  -20.1390   47.6370 C.3    68  GLN68       0.1601
     46  C         15.9480  -18.9130   47.8100 C.2    68  GLN68       0.2287
     47  O         16.3730  -17.9200   48.3920 O.2    68  GLN68      -0.2864
     48  CB        17.6430  -20.0050   46.3560 C.3    68  GLN68       0.0394
     49  CG        18.8200  -20.9460   46.2510 C.3    68  GLN68       0.0908
     50  CD        19.6160  -20.6930   44.9920 C.2    68  GLN68       0.2608
     51  OE1       19.2650  -19.8370   44.1830 O.2    68  GLN68      -0.2717
     52  NE2       20.6940  -21.4390   44.8160 N.am   68  GLN68      -0.0878
     53  N         15.0800  -18.9970   51.2900 N.3    71  GLY71      -0.1225
     54  CA        16.2890  -18.5410   51.9730 C.3    71  GLY71       0.1811
     55  C         16.4070  -17.0290   52.0480 C.2    71  GLY71       0.2280
     56  O         16.8000  -16.4920   53.0840 O.2    71  GLY71      -0.2866
     57  N         22.5490  -20.5390   54.6840 N.3    86  PHE86      -0.1227
     58  CA        21.4650  -21.3770   55.1880 C.3    86  PHE86       0.1736
     59  C         21.5810  -22.7800   54.6170 C.2    86  PHE86       0.2595
     60  O         21.8080  -22.9450   53.4130 O.2    86  PHE86      -0.2718
     61  CB        20.1060  -20.7730   54.8270 C.3    86  PHE86       0.0547
     62  CG        19.4360  -20.0620   55.9730 C.ar   86  PHE86      -0.0202
     63  CD1       18.2120  -20.5170   56.4580 C.ar   86  PHE86      -0.0042
     64  CD2       20.0270  -18.9450   56.5700 C.ar   86  PHE86      -0.0042
     65  CE1       17.5770  -19.8720   57.5120 C.ar   86  PHE86      -0.0003
     66  CE2       19.4020  -18.2930   57.6240 C.ar   86  PHE86      -0.0003
     67  CZ        18.1710  -18.7570   58.0970 C.ar   86  PHE86      -0.0000
     68  N         21.4510  -23.7860   55.4840 N.am   87  LEU87      -0.1966
     69  CA        21.4160  -25.1640   55.0150 C.3    87  LEU87       0.1728
     70  C         20.0180  -25.7580   55.0600 C.2    87  LEU87       0.2616
     71  O         19.3150  -25.6770   56.0770 O.2    87  LEU87      -0.2715
     72  CB        22.4180  -26.0680   55.7560 C.3    87  LEU87       0.0311
     73  CG        23.8970  -26.0120   55.3340 C.3    87  LEU87       0.0022
     74  CD1       24.6430  -27.2880   55.7930 C.3    87  LEU87       0.0001
     75  CD2       24.0950  -25.7490   53.8280 C.3    87  LEU87       0.0001
     76  N         19.6410  -26.3380   53.9250 N.am   88  PHE88      -0.1974
     77  CA        18.4440  -27.1240   53.7810 C.3    88  PHE88       0.1639
     78  C         18.5350  -28.2480   54.8020 C.2    88  PHE88       0.2290
     79  O         19.4390  -29.0900   54.7300 O.2    88  PHE88      -0.2864
     80  CB        18.4410  -27.7320   52.3840 C.3    88  PHE88       0.0560
     81  CG        17.1380  -27.6480   51.6740 C.ar   88  PHE88      -0.0200
     82  CD1       15.9430  -27.5220   52.3720 C.ar   88  PHE88      -0.0042
     83  CD2       17.1080  -27.7400   50.2900 C.ar   88  PHE88      -0.0042
     84  CE1       14.7380  -27.4630   51.6940 C.ar   88  PHE88      -0.0003
     85  CE2       15.9150  -27.6840   49.5990 C.ar   88  PHE88      -0.0003
     86  CZ        14.7240  -27.5480   50.3000 C.ar   88  PHE88      -0.0000
     87  N         14.6630  -25.1390   57.3010 N.3   139  PHE139     -0.1241
     88  CA        15.9640  -24.4740   57.1960 C.3   139  PHE139      0.1605
     89  C         16.7140  -24.3120   58.5190 C.2   139  PHE139      0.2264
     90  O         16.0980  -24.1270   59.5740 O.2   139  PHE139     -0.2867
     91  CB        15.8170  -23.1180   56.5020 C.3   139  PHE139      0.0534
     92  CG        15.6000  -23.2360   55.0200 C.ar  139  PHE139     -0.0203
     93  CD1       16.5810  -23.8070   54.1980 C.ar  139  PHE139     -0.0042
     94  CD2       14.4130  -22.7890   54.4440 C.ar  139  PHE139     -0.0042
     95  CE1       16.3690  -23.9290   52.8260 C.ar  139  PHE139     -0.0003
     96  CE2       14.2000  -22.9050   53.0760 C.ar  139  PHE139     -0.0003
     97  CZ        15.1770  -23.4710   52.2650 C.ar  139  PHE139     -0.0000
@<TRIPOS>BOND
     1    19    20    1
     2    20    21    1
     3    20    23    1
     4    25    27   ar
     5    25    24   ar
     6    21    22    2
     7    27    29   ar
     8    23    24    1
     9    24    26   ar
    10    29    28   ar
    11    26    28   ar
    12    51    50    2
    13    34    35    1
    14    34    31    1
    15    12    11    2
    16    35    36    1
    17    30    31    1
    18    32    31    1
    19    32    33    2
    20    11    10    1
    21    52    50   am
    22    50    49    1
    23    13    10    1
    24    13    14    1
    25    36    38   ar
    26    36    37   ar
    27    10     9    1
    28    49    48    1
    29    48    45    1
    30     7     6    1
    31    14    16   ar
    32    14    15   ar
    33    16    18   ar
    34    39    40    1
    35    44    45    1
    36    44    41   am
    37    45    46    1
    38    46    47    2
    39     4     3    2
    40     5     6    1
    41     5     2    1
    42    15    17   ar
    43     6     8    1
    44    18    17   ar
    45    40    43    1
    46    40    41    1
    47    41    42    2
    48     3     2    1
    49     2     1    1
    50    85    83   ar
    51    85    86   ar
    52    83    81   ar
    53    86    84   ar
    54    53    54    1
    55    81    82   ar
    56    81    80    1
    57    84    82   ar
    58    54    55    1
    59    55    56    2
    60    97    95   ar
    61    97    96   ar
    62    80    77    1
    63    95    93   ar
    64    96    94   ar
    65    60    59    2
    66    77    76    1
    67    77    78    1
    68    75    73    1
    69    76    70   am
    70    93    92   ar
    71    94    92   ar
    72    59    58    1
    73    59    68   am
    74    57    58    1
    75    79    78    2
    76    61    58    1
    77    61    62    1
    78    69    70    1
    79    69    68    1
    80    69    72    1
    81    92    91    1
    82    70    71    2
    83    73    72    1
    84    73    74    1
    85    62    63   ar
    86    62    64   ar
    87    63    65   ar
    88    91    88    1
    89    64    66   ar
    90    88    87    1
    91    88    89    1
    92    65    67   ar
    93    66    67   ar
    94    89    90    2
