@<TRIPOS>MOLECULE
tmp/3az9D00.pdb
 85 86 0 0 0
SMALL
GASTEIGER

@<TRIPOS>ATOM
      1  N        -20.2730   32.3660   28.1400 N.3    50  HIS50      -0.1226
      2  CA       -18.9280   32.6770   28.6110 C.3    50  HIS50       0.1752
      3  C        -17.8350   32.0910   27.6900 C.2    50  HIS50       0.2596
      4  O        -17.1150   31.1660   28.0780 O.2    50  HIS50      -0.2718
      5  CB       -18.7780   32.1310   30.0450 C.3    50  HIS50       0.0759
      6  CG       -17.6240   32.7020   30.8040 C.ar   50  HIS50       0.0818
      7  ND1      -16.3560   32.1680   30.7510 N.ar   50  HIS50      -0.2268
      8  CD2      -17.5540   33.7450   31.6600 C.ar   50  HIS50       0.1154
      9  CE1      -15.5480   32.8780   31.5160 C.ar   50  HIS50       0.1986
     10  NE2      -16.2510   33.8370   32.0850 N.ar   50  HIS50      -0.2212
     11  N        -17.6560   32.6350   26.4940 N.am   51  PHE51      -0.1976
     12  CA       -18.3820   33.7900   25.9870 C.3    51  PHE51       0.1639
     13  C        -18.8570   33.4580   24.5790 C.2    51  PHE51       0.2290
     14  O        -18.3140   32.5360   23.9500 O.2    51  PHE51      -0.2864
     15  CB       -17.5040   35.0390   25.9690 C.3    51  PHE51       0.0560
     16  CG       -16.9610   35.4120   27.2970 C.ar   51  PHE51      -0.0200
     17  CD1      -17.6940   36.1850   28.1700 C.ar   51  PHE51      -0.0042
     18  CD2      -15.6890   35.0040   27.6820 C.ar   51  PHE51      -0.0042
     19  CE1      -17.1740   36.5540   29.4240 C.ar   51  PHE51      -0.0003
     20  CE2      -15.1600   35.3560   28.9260 C.ar   51  PHE51      -0.0003
     21  CZ       -15.9100   36.1270   29.7950 C.ar   51  PHE51      -0.0000
     22  N        -14.4240   30.0840   27.0710 N.3    56  ILE56      -0.1231
     23  CA       -13.4260   29.9360   28.1460 C.3    56  ILE56       0.1692
     24  C        -14.1620   29.4660   29.3840 C.2    56  ILE56       0.2592
     25  O        -15.1700   30.0810   29.7550 O.2    56  ILE56      -0.2718
     26  CB       -12.8290   31.2930   28.5330 C.3    56  ILE56       0.0266
     27  CG1      -11.9450   31.8400   27.4480 C.3    56  ILE56       0.0019
     28  CG2      -11.9700   31.1770   29.7230 C.3    56  ILE56       0.0020
     29  CD1      -11.4750   33.1960   27.7610 C.3    56  ILE56       0.0001
     30  N        -13.6750   28.4020   30.0220 N.am   57  MET57      -0.1966
     31  CA       -14.3270   27.8750   31.2080 C.3    57  MET57       0.1721
     32  C        -14.2010   28.8940   32.3620 C.2    57  MET57       0.2458
     33  O        -13.0970   29.2870   32.7460 O.2    57  MET57      -0.2730
     34  CB       -13.7700   26.5030   31.5960 C.3    57  MET57       0.0427
     35  CG       -14.3080   25.9760   32.9050 C.3    57  MET57       0.0599
     36  SD       -13.7540   24.3090   33.2870 S.3    57  MET57      -0.1393
     37  CE       -14.6500   23.9610   34.8160 C.3    57  MET57       0.0692
     38  N        -15.3460   29.3420   32.8990 N.am   58  PRO58      -0.2716
     39  CA       -15.3280   30.3340   33.9790 C.3    58  PRO58       0.1536
     40  C        -14.4490   29.8860   35.1150 C.2    58  PRO58       0.2599
     41  O        -14.5910   28.7560   35.5950 O.2    58  PRO58      -0.2715
     42  CB       -16.7880   30.3850   34.4360 C.3    58  PRO58       0.0310
     43  CG       -17.5540   29.9850   33.2370 C.3    58  PRO58       0.0237
     44  CD       -16.7140   29.0190   32.4730 C.3    58  PRO58       0.0939
     45  N        -13.5480   30.7610   35.5360 N.am   59  GLY59      -0.1941
     46  CA       -12.6530   30.4910   36.6690 C.3    59  GLY59       0.2014
     47  C        -13.4020   30.0000   37.8890 C.2    59  GLY59       0.2638
     48  O        -12.9900   29.0390   38.5070 O.2    59  GLY59      -0.2714
     49  N        -14.5220   30.6410   38.2140 N.am   60  VAL60      -0.1977
     50  CA       -15.2900   30.2590   39.3840 C.3    60  VAL60       0.1596
     51  C        -15.7840   28.8160   39.3220 C.2    60  VAL60       0.2287
     52  O        -15.9990   28.1740   40.3560 O.2    60  VAL60      -0.2864
     53  CB       -16.4500   31.1980   39.6490 C.3    60  VAL60       0.0276
     54  CG1      -15.9390   32.6500   39.8180 C.3    60  VAL60       0.0022
     55  CG2      -17.5340   31.0510   38.5700 C.3    60  VAL60       0.0022
     56  N        -14.0000   26.4300   37.8390 N.3    62  GLN62      -0.1245
     57  CA       -12.7870   25.7060   38.2440 C.3    62  GLN62       0.1566
     58  C        -12.6310   25.6410   39.7730 C.2    62  GLN62       0.2260
     59  O        -12.2440   24.6020   40.3320 O.2    62  GLN62      -0.2867
     60  CB       -11.5570   26.3360   37.6170 C.3    62  GLN62       0.0367
     61  CG       -11.6270   26.3680   36.1050 C.3    62  GLN62       0.0905
     62  CD       -10.4900   27.1090   35.4650 C.2    62  GLN62       0.2608
     63  OE1       -9.3650   26.9630   35.8310 O.2    62  GLN62      -0.2717
     64  NE2      -10.7780   27.8840   34.5070 N.am   62  GLN62      -0.0878
     65  N         -5.4720   32.0400   38.7590 N.3    96  TRP96      -0.1241
     66  CA        -5.6690   31.4060   37.4590 C.3    96  TRP96       0.1605
     67  C         -4.5310   31.7630   36.5230 C.2    96  TRP96       0.2264
     68  O         -4.3020   32.9300   36.2280 O.2    96  TRP96      -0.2867
     69  CB        -7.0260   31.8130   36.8420 C.3    96  TRP96       0.0550
     70  CG        -8.2570   31.3240   37.6170 C.ar   96  TRP96       0.0003
     71  CD1       -8.8100   30.0750   37.5840 C.ar   96  TRP96       0.0946
     72  CD2       -9.0650   32.0880   38.5270 C.ar   96  TRP96       0.0152
     73  NE1       -9.9010   30.0100   38.4140 N.ar   96  TRP96      -0.2442
     74  CE2      -10.0860   31.2300   39.0040 C.ar   96  TRP96       0.0810
     75  CE3       -9.0190   33.4100   38.9930 C.ar   96  TRP96       0.0012
     76  CZ2      -11.0720   31.6580   39.9100 C.ar   96  TRP96       0.0191
     77  CZ3       -9.9860   33.8310   39.9130 C.ar   96  TRP96       0.0001
     78  CH2      -11.0040   32.9620   40.3550 C.ar   96  TRP96       0.0015
     79  N         -6.0580   29.8790   30.5720 N.3    99  PRO99      -0.2116
     80  CA        -7.4230   29.5870   30.1980 C.3    99  PRO99       0.1372
     81  C         -7.6610   28.0850   30.0580 C.2    99  PRO99       0.2244
     82  O         -6.8230   27.3780   29.5080 O.2    99  PRO99      -0.2868
     83  CB        -7.5420   30.2530   28.8290 C.3    99  PRO99       0.0268
     84  CG        -6.6050   31.3760   28.8870 C.3    99  PRO99       0.0207
     85  CD        -5.4560   30.8650   29.6590 C.3    99  PRO99       0.0892
@<TRIPOS>BOND
     1    14    13    2
     2    13    12    1
     3    15    12    1
     4    15    16    1
     5    12    11    1
     6    11     3   am
     7    22    23    1
     8    16    18   ar
     9    16    17   ar
    10    27    29    1
    11    27    26    1
    12    18    20   ar
    13     3     4    2
    14     3     2    1
    15     1     2    1
    16    23    26    1
    17    23    24    1
    18    17    19   ar
    19    26    28    1
    20     2     5    1
    21    83    84    1
    22    83    80    1
    23    84    85    1
    24    20    21   ar
    25    24    25    2
    26    24    30   am
    27    19    21   ar
    28    82    81    2
    29    85    79    1
    30    30    31    1
    31     5     6    1
    32    81    80    1
    33    80    79    1
    34     7     6   ar
    35     7     9   ar
    36     6     8   ar
    37    31    34    1
    38    31    32    1
    39     9    10   ar
    40    34    35    1
    41     8    10   ar
    42    32    33    2
    43    32    38   am
    44    44    38    1
    45    44    43    1
    46    38    39    1
    47    35    36    1
    48    43    42    1
    49    36    37    1
    50    39    42    1
    51    39    40    1
    52    64    62   am
    53    40    45   am
    54    40    41    2
    55    62    63    2
    56    62    61    1
    57    45    46    1
    58    61    60    1
    59    68    67    2
    60    67    66    1
    61    46    47    1
    62    69    66    1
    63    69    70    1
    64    66    65    1
    65    71    70   ar
    66    71    73   ar
    67    60    57    1
    68    70    72   ar
    69    56    57    1
    70    47    49   am
    71    47    48    2
    72    49    50    1
    73    57    58    1
    74    73    74   ar
    75    72    75   ar
    76    72    74   ar
    77    55    53    1
    78    75    77   ar
    79    74    76   ar
    80    51    50    1
    81    51    52    2
    82    50    53    1
    83    53    54    1
    84    58    59    2
    85    76    78   ar
    86    77    78   ar
