@<TRIPOS>MOLECULE
tmp/3az9D01.pdb
 128 126 0 0 0
SMALL
GASTEIGER

@<TRIPOS>ATOM
      1  N        -21.9250   13.0500   46.5140 N.3    13  LEU13      -0.1231
      2  CA       -22.3460   14.4580   46.4030 C.3    13  LEU13       0.1678
      3  C        -23.8490   14.6360   46.1080 C.2    13  LEU13       0.2434
      4  O        -24.4810   13.8120   45.4250 O.2    13  LEU13      -0.2733
      5  CB       -21.5150   15.1800   45.3260 C.3    13  LEU13       0.0284
      6  CG       -20.0030   15.3720   45.5500 C.3    13  LEU13       0.0019
      7  CD1      -19.3110   15.9870   44.3340 C.3    13  LEU13       0.0001
      8  CD2      -19.7210   16.1740   46.8150 C.3    13  LEU13       0.0001
      9  N        -24.4350   15.7230   46.6090 N.am   14  PRO14      -0.2718
     10  CA       -25.8220   15.9910   46.2790 C.3    14  PRO14       0.1535
     11  C        -25.9980   16.7760   44.9640 C.2    14  PRO14       0.2598
     12  O        -27.1480   16.9090   44.4830 O.2    14  PRO14      -0.2715
     13  CB       -26.3010   16.8200   47.4580 C.3    14  PRO14       0.0310
     14  CG       -25.0870   17.4940   47.9660 C.3    14  PRO14       0.0237
     15  CD       -23.8840   16.7150   47.5390 C.3    14  PRO14       0.0939
     16  N        -24.8730   17.2760   44.4110 N.am   15  HIS15      -0.1974
     17  CA       -24.8550   18.1450   43.2340 C.3    15  HIS15       0.1656
     18  C        -25.4410   17.3790   42.0710 C.2    15  HIS15       0.2291
     19  O        -25.1880   16.1880   41.9150 O.2    15  HIS15      -0.2864
     20  CB       -23.4200   18.5970   42.8870 C.3    15  HIS15       0.0771
     21  CG       -22.7270   19.3430   43.9870 C.ar   15  HIS15       0.0820
     22  ND1      -22.3220   18.7380   45.1570 N.ar   15  HIS15      -0.2267
     23  CD2      -22.3680   20.6440   44.0930 C.ar   15  HIS15       0.1154
     24  CE1      -21.7650   19.6370   45.9460 C.ar   15  HIS15       0.1986
     25  NE2      -21.7730   20.8000   45.3210 N.ar   15  HIS15      -0.2212
     26  N        -24.7420   21.4590   37.7150 N.3    19  PHE19      -0.1241
     27  CA       -23.7310   21.9490   38.6240 C.3    19  PHE19       0.1605
     28  C        -22.9060   20.8940   39.2800 C.2    19  PHE19       0.2264
     29  O        -22.3130   21.1630   40.3070 O.2    19  PHE19      -0.2867
     30  CB       -24.3360   22.8760   39.6820 C.3    19  PHE19       0.0534
     31  CG       -23.5390   24.1260   39.9080 C.ar   19  PHE19      -0.0203
     32  CD1      -23.5740   25.1720   38.9800 C.ar   19  PHE19      -0.0042
     33  CD2      -22.7530   24.2700   41.0550 C.ar   19  PHE19      -0.0042
     34  CE1      -22.8240   26.3750   39.2190 C.ar   19  PHE19      -0.0003
     35  CE2      -22.0310   25.4250   41.2790 C.ar   19  PHE19      -0.0003
     36  CZ       -22.0690   26.4900   40.3580 C.ar   19  PHE19      -0.0000
     37  N        -15.3230   25.7430   41.8550 N.3    64  GLU64      -0.1245
     38  CA       -16.3810   24.8230   42.1920 C.3    64  GLU64       0.1567
     39  C        -15.9280   23.3750   42.0180 C.2    64  GLU64       0.2260
     40  O        -16.1040   22.5380   42.9380 O.2    64  GLU64      -0.2867
     41  CB       -17.6200   25.0910   41.3360 C.3    64  GLU64       0.0388
     42  CG       -18.8310   24.1990   41.6550 C.3    64  GLU64       0.1160
     43  CD       -19.3730   24.3720   43.0490 C.2    64  GLU64       0.3649
     44  OE1      -19.2040   25.4840   43.6120 O.co2  64  GLU64      -0.2457
     45  OE2      -19.9650   23.4020   43.5740 O.co2  64  GLU64      -0.2457
     46  N        -13.5910   22.2710   44.5650 N.3    67  ALA67      -0.1231
     47  CA       -14.2890   22.2600   45.8660 C.3    67  ALA67       0.1694
     48  C        -15.1920   21.0550   46.0350 C.2    67  ALA67       0.2591
     49  O        -15.3400   20.5360   47.1530 O.2    67  ALA67      -0.2718
     50  CB       -15.0910   23.5280   46.0500 C.3    67  ALA67       0.0304
     51  N        -15.7910   20.6260   44.9200 N.am   68  GLN68      -0.1979
     52  CA       -16.5930   19.4180   44.8900 C.3    68  GLN68       0.1601
     53  C        -15.7480   18.1790   45.1090 C.2    68  GLN68       0.2287
     54  O        -16.1180   17.3210   45.8900 O.2    68  GLN68      -0.2864
     55  CB       -17.3750   19.3220   43.5870 C.3    68  GLN68       0.0394
     56  CG       -18.5950   20.1870   43.5620 C.3    68  GLN68       0.0908
     57  CD       -19.3470   20.0750   42.2890 C.2    68  GLN68       0.2608
     58  OE1      -18.9880   19.3310   41.3890 O.2    68  GLN68      -0.2717
     59  NE2      -20.4090   20.8170   42.1960 N.am   68  GLN68      -0.0878
     60  N        -14.7620   18.2240   48.6040 N.3    71  GLY71      -0.1225
     61  CA       -15.9440   17.7680   49.3430 C.3    71  GLY71       0.1811
     62  C        -16.1290   16.2570   49.3970 C.2    71  GLY71       0.2280
     63  O        -16.6160   15.7350   50.4060 O.2    71  GLY71      -0.2866
     64  N        -16.1970   13.7870   52.7870 N.3    75  LEU75      -0.1245
     65  CA       -17.2990   12.8850   53.0990 C.3    75  LEU75       0.1561
     66  C        -16.8600   11.4130   53.1920 C.2    75  LEU75       0.2260
     67  O        -17.4750   10.6240   53.9170 O.2    75  LEU75      -0.2867
     68  CB       -18.4430   13.0640   52.0970 C.3    75  LEU75       0.0270
     69  CG       -19.2250   14.3910   52.1000 C.3    75  LEU75       0.0019
     70  CD1      -19.9550   14.6310   50.7840 C.3    75  LEU75       0.0001
     71  CD2      -20.2010   14.4890   53.2790 C.3    75  LEU75       0.0001
     72  N        -24.5170   15.2150   53.6440 N.3    84  ASN84      -0.1225
     73  CA       -23.7340   15.4360   52.4130 C.3    84  ASN84       0.1785
     74  C        -23.7960   16.8510   51.8210 C.2    84  ASN84       0.2597
     75  O        -23.0450   17.1680   50.8840 O.2    84  ASN84      -0.2718
     76  CB       -23.9910   14.3620   51.3340 C.3    84  ASN84       0.1169
     77  CG       -25.3900   14.4590   50.6760 C.2    84  ASN84       0.2627
     78  OD1      -26.3090   15.1120   51.1900 O.2    84  ASN84      -0.2716
     79  ND2      -25.5470   13.7740   49.5430 N.am   84  ASN84      -0.0877
     80  N        -24.6750   17.6940   52.3730 N.am   85  LEU85      -0.1966
     81  CA       -24.7430   19.1230   52.0040 C.3    85  LEU85       0.1728
     82  C        -23.6180   19.9430   52.6790 C.2    85  LEU85       0.2616
     83  O        -23.7610   20.4480   53.8220 O.2    85  LEU85      -0.2715
     84  CB       -26.1250   19.7210   52.3100 C.3    85  LEU85       0.0311
     85  CG       -27.2220   19.5330   51.2670 C.3    85  LEU85       0.0022
     86  CD1      -28.2760   18.4840   51.6680 C.3    85  LEU85       0.0001
     87  CD2      -27.8710   20.8760   51.0540 C.3    85  LEU85       0.0001
     88  N        -22.4860   20.0450   51.9800 N.am   86  PHE86      -0.1960
     89  CA       -21.3540   20.8720   52.4450 C.3    86  PHE86       0.1771
     90  C        -21.4630   22.2470   51.8140 C.2    86  PHE86       0.2619
     91  O        -21.6780   22.3610   50.6170 O.2    86  PHE86      -0.2715
     92  CB       -20.0080   20.2270   52.0940 C.3    86  PHE86       0.0574
     93  CG       -19.3470   19.5490   53.2550 C.ar   86  PHE86      -0.0200
     94  CD1      -18.0400   19.8600   53.5990 C.ar   86  PHE86      -0.0042
     95  CD2      -20.0290   18.6060   54.0180 C.ar   86  PHE86      -0.0042
     96  CE1      -17.4070   19.2320   54.6850 C.ar   86  PHE86      -0.0003
     97  CE2      -19.4080   17.9740   55.1160 C.ar   86  PHE86      -0.0003
     98  CZ       -18.0970   18.2890   55.4450 C.ar   86  PHE86      -0.0000
     99  N        -21.3580   23.2960   52.6170 N.am   87  LEU87      -0.1963
    100  CA       -21.2980   24.6300   52.0460 C.3    87  LEU87       0.1728
    101  C        -19.8710   25.1910   52.1060 C.2    87  LEU87       0.2616
    102  O        -19.1220   25.0170   53.0750 O.2    87  LEU87      -0.2715
    103  CB       -22.3200   25.5810   52.6910 C.3    87  LEU87       0.0311
    104  CG       -23.8260   25.3680   52.4450 C.3    87  LEU87       0.0022
    105  CD1      -24.6510   26.5180   53.0710 C.3    87  LEU87       0.0001
    106  CD2      -24.1680   25.1730   50.9600 C.3    87  LEU87       0.0001
    107  N        -19.5160   25.8490   51.0250 N.am   88  PHE88      -0.1974
    108  CA       -18.3470   26.6540   50.9620 C.3    88  PHE88       0.1639
    109  C        -18.4610   27.7800   52.0140 C.2    88  PHE88       0.2290
    110  O        -19.4250   28.5670   51.9800 O.2    88  PHE88      -0.2864
    111  CB       -18.3150   27.2380   49.5620 C.3    88  PHE88       0.0560
    112  CG       -17.0140   27.0720   48.8640 C.ar   88  PHE88      -0.0200
    113  CD1      -15.8170   27.1220   49.5600 C.ar   88  PHE88      -0.0042
    114  CD2      -16.9920   26.9020   47.4950 C.ar   88  PHE88      -0.0042
    115  CE1      -14.6140   26.9870   48.8940 C.ar   88  PHE88      -0.0003
    116  CE2      -15.8070   26.7730   46.8190 C.ar   88  PHE88      -0.0003
    117  CZ       -14.6090   26.8120   47.5170 C.ar   88  PHE88      -0.0000
    118  N        -14.5400   24.6680   54.4340 N.3   143  PHE143     -0.1241
    119  CA       -15.8310   24.0150   54.3380 C.3   143  PHE143      0.1605
    120  C        -16.4730   23.8100   55.6790 C.2   143  PHE143      0.2264
    121  O        -15.7750   23.5270   56.6620 O.2   143  PHE143     -0.2867
    122  CB       -15.6730   22.6560   53.6840 C.3   143  PHE143      0.0534
    123  CG       -15.3890   22.7440   52.2300 C.ar  143  PHE143     -0.0203
    124  CD1      -16.4070   23.0220   51.3240 C.ar  143  PHE143     -0.0042
    125  CD2      -14.0940   22.5720   51.7640 C.ar  143  PHE143     -0.0042
    126  CE1      -16.1310   23.1260   49.9860 C.ar  143  PHE143     -0.0003
    127  CE2      -13.8250   22.6640   50.4180 C.ar  143  PHE143     -0.0003
    128  CZ       -14.8370   22.9360   49.5380 C.ar  143  PHE143     -0.0000
@<TRIPOS>BOND
     1    26    27    1
     2    27    28    1
     3    27    30    1
     4    32    34   ar
     5    32    31   ar
     6    34    36   ar
     7    28    29    2
     8    30    31    1
     9    31    33   ar
    10    36    35   ar
    11    33    35   ar
    12    41    42    1
    13    41    38    1
    14    58    57    2
    15    42    43    1
    16    37    38    1
    17    19    18    2
    18    39    38    1
    19    39    40    2
    20    18    17    1
    21    59    57   am
    22    57    56    1
    23    20    17    1
    24    20    21    1
    25    43    45   ar
    26    43    44   ar
    27    17    16    1
    28    56    55    1
    29    55    52    1
    30    21    23   ar
    31    21    22   ar
    32    23    25   ar
    33     7     6    1
    34    16    11   am
    35    12    11    2
    36    46    47    1
    37    52    51    1
    38    52    53    1
    39    51    48   am
    40    11    10    1
    41    53    54    2
    42    22    24   ar
    43    25    24   ar
    44     5     6    1
    45     5     2    1
    46     4     3    2
    47     6     8    1
    48    47    48    1
    49    47    50    1
    50    48    49    2
    51     3     2    1
    52     3     9   am
    53    10     9    1
    54    10    13    1
    55     2     1    1
    56     9    15    1
    57   116   114   ar
    58   116   117   ar
    59    13    14    1
    60   114   112   ar
    61   117   115   ar
    62    15    14    1
    63    60    61    1
    64   112   113   ar
    65   112   111    1
    66   115   113   ar
    67    61    62    1
    68    62    63    2
    69   128   126   ar
    70   128   127   ar
    71    79    77   am
    72   111   108    1
    73   126   124   ar
    74   127   125   ar
    75    91    90    2
    76    77    78    2
    77    77    76    1
    78    70    69    1
    79    75    74    2
    80   106   104    1
    81   108   107    1
    82   108   109    1
    83   107   101   am
    84    87    85    1
    85    85    86    1
    86    85    84    1
    87   124   123   ar
    88    76    73    1
    89   125   123   ar
    90    90    89    1
    91    90    99   am
    92    74    80   am
    93    74    73    1
    94    88    89    1
    95    88    82   am
    96   110   109    2
    97    81    84    1
    98    81    80    1
    99    81    82    1
   100   100   101    1
   101   100    99    1
   102   100   103    1
   103    92    89    1
   104    92    93    1
   105    68    69    1
   106    68    65    1
   107    69    71    1
   108   101   102    2
   109   123   122    1
   110    73    72    1
   111   104   103    1
   112   104   105    1
   113    82    83    2
   114    64    65    1
   115    65    66    1
   116    66    67    2
   117    93    94   ar
   118    93    95   ar
   119    94    96   ar
   120   122   119    1
   121    95    97   ar
   122   119   118    1
   123   119   120    1
   124    96    98   ar
   125    97    98   ar
   126   120   121    2
