@<TRIPOS>MOLECULE
tmp/3azaN00.pdb
 85 86 0 0 0
SMALL
GASTEIGER

@<TRIPOS>ATOM
      1  N        -30.0780   84.8350  -16.8370 N.3    49  HIS49      -0.1226
      2  CA       -30.2300   85.5440  -15.5680 C.3    49  HIS49       0.1752
      3  C        -31.4330   85.0630  -14.7510 C.2    49  HIS49       0.2596
      4  O        -32.4040   85.8070  -14.5960 O.2    49  HIS49      -0.2718
      5  CB       -30.3700   87.0450  -15.8560 C.3    49  HIS49       0.0759
      6  CG       -30.0560   87.9160  -14.6850 C.ar   49  HIS49       0.0818
      7  ND1      -30.9850   88.2150  -13.7110 N.ar   49  HIS49      -0.2268
      8  CD2      -28.9160   88.5520  -14.3280 C.ar   49  HIS49       0.1154
      9  CE1      -30.4310   88.9990  -12.8040 C.ar   49  HIS49       0.1986
     10  NE2      -29.1760   89.2150  -13.1540 N.ar   49  HIS49      -0.2212
     11  N        -31.3990   83.8450  -14.2120 N.am   50  PHE50      -0.1976
     12  CA       -30.2850   82.9070  -14.2930 C.3    50  PHE50       0.1639
     13  C        -30.8860   81.5570  -14.6590 C.2    50  PHE50       0.2290
     14  O        -32.1010   81.3960  -14.5920 O.2    50  PHE50      -0.2864
     15  CB       -29.5930   82.7850  -12.9300 C.3    50  PHE50       0.0560
     16  CG       -29.0360   84.0780  -12.4110 C.ar   50  PHE50      -0.0200
     17  CD1      -27.7510   84.4860  -12.7640 C.ar   50  PHE50      -0.0042
     18  CD2      -29.7890   84.8790  -11.5570 C.ar   50  PHE50      -0.0042
     19  CE1      -27.2260   85.6820  -12.2830 C.ar   50  PHE50      -0.0003
     20  CE2      -29.2780   86.0790  -11.0670 C.ar   50  PHE50      -0.0003
     21  CZ       -27.9950   86.4820  -11.4290 C.ar   50  PHE50      -0.0000
     22  N        -34.7340   85.8930  -12.5200 N.3    55  ILE55      -0.1231
     23  CA       -34.8890   87.1960  -11.8710 C.3    55  ILE55       0.1692
     24  C        -34.5200   88.2730  -12.8870 C.2    55  ILE55       0.2592
     25  O        -33.4340   88.2370  -13.4570 O.2    55  ILE55      -0.2718
     26  CB       -33.9990   87.2970  -10.5910 C.3    55  ILE55       0.0266
     27  CG1      -34.5700   86.4230   -9.4660 C.3    55  ILE55       0.0019
     28  CG2      -33.8580   88.7460  -10.1120 C.3    55  ILE55       0.0020
     29  CD1      -33.5380   85.9160   -8.4530 C.3    55  ILE55       0.0001
     30  N        -35.4360   89.2090  -13.1360 N.am   56  MET56      -0.1966
     31  CA       -35.1650   90.3010  -14.0610 C.3    56  MET56       0.1721
     32  C        -33.9880   91.1310  -13.5560 C.2    56  MET56       0.2458
     33  O        -33.9850   91.5700  -12.4020 O.2    56  MET56      -0.2730
     34  CB       -36.3950   91.1880  -14.2690 C.3    56  MET56       0.0427
     35  CG       -36.0910   92.4740  -15.0390 C.3    56  MET56       0.0599
     36  SD       -37.5420   93.4040  -15.5600 S.3    56  MET56      -0.1393
     37  CE       -36.7770   94.8160  -16.3620 C.3    56  MET56       0.0692
     38  N        -32.9760   91.3280  -14.4190 N.am   57  PRO57      -0.2716
     39  CA       -31.8140   92.1490  -14.1220 C.3    57  PRO57       0.1536
     40  C        -32.1960   93.5340  -13.6060 C.2    57  PRO57       0.2599
     41  O        -33.0290   94.2180  -14.2080 O.2    57  PRO57      -0.2715
     42  CB       -31.1320   92.2690  -15.4800 C.3    57  PRO57       0.0310
     43  CG       -31.4630   91.0020  -16.1450 C.3    57  PRO57       0.0237
     44  CD       -32.8560   90.6820  -15.7390 C.3    57  PRO57       0.0939
     45  N        -31.5810   93.9310  -12.4960 N.am   58  GLY58      -0.1941
     46  CA       -31.7900   95.2560  -11.9180 C.3    58  GLY58       0.2014
     47  C        -31.4680   96.3390  -12.9240 C.2    58  GLY58       0.2638
     48  O        -32.2220   97.3020  -13.0780 O.2    58  GLY58      -0.2714
     49  N        -30.3550   96.1600  -13.6300 N.am   59  VAL59      -0.1977
     50  CA       -29.9240   97.1160  -14.6480 C.3    59  VAL59       0.1596
     51  C        -30.9500   97.3160  -15.7810 C.2    59  VAL59       0.2287
     52  O        -31.0030   98.3850  -16.3950 O.2    59  VAL59      -0.2864
     53  CB       -28.5140   96.7760  -15.2020 C.3    59  VAL59       0.0276
     54  CG1      -27.5190   96.6320  -14.0470 C.3    59  VAL59       0.0022
     55  CG2      -28.5300   95.5090  -16.0650 C.3    59  VAL59       0.0022
     56  N        -34.1450   97.1450  -15.1590 N.3    61  GLN61      -0.1245
     57  CA       -35.2030   97.8800  -14.4720 C.3    61  GLN61       0.1566
     58  C        -34.8830   99.3620  -14.5720 C.2    61  GLN61       0.2260
     59  O        -35.7530  100.1750  -14.9210 O.2    61  GLN61      -0.2867
     60  CB       -35.3250   97.4200  -13.0190 C.3    61  GLN61       0.0367
     61  CG       -35.8690   95.9970  -12.8880 C.3    61  GLN61       0.0905
     62  CD       -35.8440   95.4670  -11.4720 C.2    61  GLN61       0.2608
     63  OE1      -35.2500   94.4250  -11.1970 O.2    61  GLN61      -0.2717
     64  NE2      -36.4970   96.1740  -10.5600 N.am   61  GLN61      -0.0878
     65  N        -32.6370   98.6390   -5.2570 N.3    95  TRP95      -0.1241
     66  CA       -33.5810   97.5520   -5.5210 C.3    95  TRP95       0.1605
     67  C        -34.0230   96.9270   -4.2080 C.2    95  TRP95       0.2264
     68  O        -33.1950   96.4400   -3.4310 O.2    95  TRP95      -0.2867
     69  CB       -32.9830   96.4930   -6.4560 C.3    95  TRP95       0.0550
     70  CG       -32.5930   97.0410   -7.7920 C.ar   95  TRP95       0.0003
     71  CD1      -33.4100   97.2410   -8.8670 C.ar   95  TRP95       0.0946
     72  CD2      -31.2890   97.4760   -8.1940 C.ar   95  TRP95       0.0152
     73  NE1      -32.6960   97.7710   -9.9150 N.ar   95  TRP95      -0.2442
     74  CE2      -31.3920   97.9230   -9.5290 C.ar   95  TRP95       0.0810
     75  CE3      -30.0440   97.5330   -7.5540 C.ar   95  TRP95       0.0012
     76  CZ2      -30.2980   98.4100  -10.2410 C.ar   95  TRP95       0.0191
     77  CZ3      -28.9530   98.0250   -8.2630 C.ar   95  TRP95       0.0001
     78  CH2      -29.0880   98.4560   -9.5930 C.ar   95  TRP95       0.0015
     79  N        -36.9780   91.3990   -5.5700 N.3    98  PRO98      -0.2116
     80  CA       -36.7840   90.7460   -6.8740 C.3    98  PRO98       0.1372
     81  C        -38.0350   90.8490   -7.7490 C.2    98  PRO98       0.2244
     82  O        -39.1530   90.6970   -7.2380 O.2    98  PRO98      -0.2868
     83  CB       -36.5240   89.2790   -6.5010 C.3    98  PRO98       0.0268
     84  CG       -36.0850   89.3080   -5.0820 C.3    98  PRO98       0.0207
     85  CD       -36.8270   90.4490   -4.4530 C.3    98  PRO98       0.0892
@<TRIPOS>BOND
     1     1     2    1
     2    52    51    2
     3    37    36    1
     4    43    44    1
     5    43    42    1
     6    55    53    1
     7     5     2    1
     8     5     6    1
     9    51    50    1
    10    44    38    1
    11     2     3    1
    12    36    35    1
    13    42    39    1
    14    53    50    1
    15    53    54    1
    16    56    57    1
    17    35    34    1
    18    59    58    2
    19     3     4    2
    20     3    11   am
    21     6     8   ar
    22     6     7   ar
    23    13    14    2
    24    13    12    1
    25    50    49    1
    26    58    57    1
    27    57    60    1
    28    38    39    1
    29    38    32   am
    30     8    10   ar
    31    12    11    1
    32    12    15    1
    33    34    31    1
    34    41    40    2
    35    39    40    1
    36    31    32    1
    37    31    30    1
    38     7     9   ar
    39    49    47   am
    40    40    45   am
    41    32    33    2
    42    25    24    2
    43    10     9   ar
    44    30    24   am
    45    48    47    2
    46    60    61    1
    47    15    16    1
    48    47    46    1
    49    61    62    1
    50    24    23    1
    51    17    16   ar
    52    17    19   ar
    53    22    23    1
    54    45    46    1
    55    16    18   ar
    56    19    21   ar
    57    23    26    1
    58    18    20   ar
    59    62    63    2
    60    62    64   am
    61    21    20   ar
    62    26    28    1
    63    26    27    1
    64    76    78   ar
    65    76    74   ar
    66    73    74   ar
    67    73    71   ar
    68    78    77   ar
    69    74    72   ar
    70    27    29    1
    71    71    70   ar
    72    77    75   ar
    73    72    70   ar
    74    72    75   ar
    75    70    69    1
    76    81    82    2
    77    81    80    1
    78    80    83    1
    79    80    79    1
    80    83    84    1
    81    69    66    1
    82    79    85    1
    83    66    65    1
    84    66    67    1
    85    84    85    1
    86    67    68    2
