@<TRIPOS>MOLECULE
tmp/3azaM00.pdb
 120 117 0 0 0
SMALL
GASTEIGER

@<TRIPOS>ATOM
      1  N        -19.1440   82.6480  -11.6890 N.3    13  LEU13      -0.1231
      2  CA       -20.4490   83.3000  -11.8810 C.3    13  LEU13       0.1678
      3  C        -21.5340   82.3570  -12.4170 C.2    13  LEU13       0.2434
      4  O        -21.2390   81.4370  -13.1830 O.2    13  LEU13      -0.2733
      5  CB       -20.3290   84.5160  -12.8040 C.3    13  LEU13       0.0284
      6  CG       -19.5710   85.7500  -12.3010 C.3    13  LEU13       0.0019
      7  CD1      -19.5400   86.8150  -13.3870 C.3    13  LEU13       0.0001
      8  CD2      -20.1840   86.3180  -11.0110 C.3    13  LEU13       0.0001
      9  N        -22.8020   82.5900  -12.0160 N.am   14  PRO14      -0.2718
     10  CA       -23.9050   81.7790  -12.5250 C.3    14  PRO14       0.1535
     11  C        -24.4540   82.3100  -13.8470 C.2    14  PRO14       0.2598
     12  O        -25.2740   81.6430  -14.4830 O.2    14  PRO14      -0.2715
     13  CB       -24.9610   81.9240  -11.4310 C.3    14  PRO14       0.0310
     14  CG       -24.7500   83.3040  -10.9130 C.3    14  PRO14       0.0237
     15  CD       -23.2610   83.5570  -10.9950 C.3    14  PRO14       0.0939
     16  N        -24.0080   83.5050  -14.2370 N.am   15  HIS15      -0.1974
     17  CA       -24.4860   84.1830  -15.4410 C.3    15  HIS15       0.1656
     18  C        -24.1220   83.3750  -16.6690 C.2    15  HIS15       0.2291
     19  O        -23.0660   82.7360  -16.7090 O.2    15  HIS15      -0.2864
     20  CB       -23.8530   85.5710  -15.5780 C.3    15  HIS15       0.0771
     21  CG       -24.0720   86.4650  -14.4000 C.ar   15  HIS15       0.0820
     22  ND1      -23.5530   86.1910  -13.1500 N.ar   15  HIS15      -0.2267
     23  CD2      -24.7370   87.6420  -14.2870 C.ar   15  HIS15       0.1154
     24  CE1      -23.8950   87.1560  -12.3180 C.ar   15  HIS15       0.1986
     25  NE2      -24.6080   88.0520  -12.9840 N.ar   15  HIS15      -0.2212
     26  N        -26.3960   87.0760  -20.9580 N.3    19  PHE19      -0.1241
     27  CA       -26.1710   88.0240  -19.8640 C.3    19  PHE19       0.1605
     28  C        -24.8950   87.7790  -19.0520 C.2    19  PHE19       0.2264
     29  O        -24.8080   88.1930  -17.8960 O.2    19  PHE19      -0.2867
     30  CB       -27.3990   88.0890  -18.9380 C.3    19  PHE19       0.0534
     31  CG       -27.8000   89.4970  -18.5580 C.ar   19  PHE19      -0.0203
     32  CD1      -28.4460   90.3260  -19.4830 C.ar   19  PHE19      -0.0042
     33  CD2      -27.5420   89.9920  -17.2780 C.ar   19  PHE19      -0.0042
     34  CE1      -28.8240   91.6260  -19.1430 C.ar   19  PHE19      -0.0003
     35  CE2      -27.9190   91.2950  -16.9230 C.ar   19  PHE19      -0.0003
     36  CZ       -28.5600   92.1150  -17.8630 C.ar   19  PHE19      -0.0000
     37  N        -23.4250   96.5600  -15.5600 N.3    64  GLU64      -0.1245
     38  CA       -23.5480   95.1220  -15.3590 C.3    64  GLU64       0.1567
     39  C        -22.2040   94.4180  -15.4960 C.2    64  GLU64       0.2260
     40  O        -21.8690   93.5640  -14.6810 O.2    64  GLU64      -0.2867
     41  CB       -24.6040   94.5160  -16.2950 C.3    64  GLU64       0.0388
     42  CG       -24.8360   93.0030  -16.1130 C.3    64  GLU64       0.1160
     43  CD       -25.3970   92.6200  -14.7500 C.2    64  GLU64       0.3649
     44  OE1      -25.9700   93.5000  -14.0700 O.co2  64  GLU64      -0.2457
     45  OE2      -25.2680   91.4340  -14.3610 O.co2  64  GLU64      -0.2457
     46  N        -20.1220   95.3980  -12.5670 N.3    67  ALA67      -0.1231
     47  CA       -20.7300   94.7780  -11.3930 C.3    67  ALA67       0.1694
     48  C        -20.4760   93.2700  -11.3270 C.2    67  ALA67       0.2591
     49  O        -20.1790   92.7420  -10.2550 O.2    67  ALA67      -0.2718
     50  CB       -22.2000   95.0840  -11.3460 C.3    67  ALA67       0.0304
     51  N        -20.5920   92.5840  -12.4650 N.am   68  GLN68      -0.1979
     52  CA       -20.2520   91.1630  -12.5440 C.3    68  GLN68       0.1601
     53  C        -18.7890   90.9310  -12.1610 C.2    68  GLN68       0.2287
     54  O        -18.4870   90.0070  -11.3990 O.2    68  GLN68      -0.2864
     55  CB       -20.5290   90.5970  -13.9400 C.3    68  GLN68       0.0394
     56  CG       -22.0000   90.3600  -14.2490 C.3    68  GLN68       0.0908
     57  CD       -22.2310   89.7040  -15.5980 C.2    68  GLN68       0.2608
     58  OE1      -21.3200   89.5740  -16.4190 O.2    68  GLN68      -0.2717
     59  NE2      -23.4620   89.2920  -15.8350 N.am   68  GLN68      -0.0878
     60  N        -18.4090   91.0190   -8.7330 N.3    71  GLY71      -0.1225
     61  CA       -18.9660   89.7780   -8.1900 C.3    71  GLY71       0.1811
     62  C        -17.9440   88.6680   -8.0550 C.2    71  GLY71       0.2280
     63  O        -17.9550   87.9140   -7.0730 O.2    71  GLY71      -0.2866
     64  N        -16.6350   86.6880   -4.5800 N.3    75  LEU75      -0.1245
     65  CA       -16.7340   85.2300   -4.5480 C.3    75  LEU75       0.1561
     66  C        -15.3950   84.5270   -4.3360 C.2    75  LEU75       0.2260
     67  O        -15.3470   83.4640   -3.7230 O.2    75  LEU75      -0.2867
     68  CB       -17.4290   84.7100   -5.8160 C.3    75  LEU75       0.0270
     69  CG       -18.9320   84.9970   -5.9200 C.3    75  LEU75       0.0019
     70  CD1      -19.4340   84.8300   -7.3520 C.3    75  LEU75       0.0001
     71  CD2      -19.7300   84.1300   -4.9420 C.3    75  LEU75       0.0001
     72  N        -23.2080   81.5130   -5.1080 N.3    84  ASN84      -0.1240
     73  CA       -22.7040   82.3800   -6.1770 C.3    84  ASN84       0.1653
     74  C        -23.7310   83.3970   -6.6900 C.2    84  ASN84       0.2266
     75  O        -23.3660   84.4200   -7.2800 O.2    84  ASN84      -0.2867
     76  CB       -22.1180   81.5500   -7.3320 C.3    84  ASN84       0.1155
     77  CG       -23.0850   80.4830   -7.8500 C.2    84  ASN84       0.2627
     78  OD1      -23.9860   80.0220   -7.1300 O.2    84  ASN84      -0.2716
     79  ND2      -22.8890   80.0790   -9.1060 N.am   84  ASN84      -0.0877
     80  N        -25.3650   86.3090   -6.3870 N.3    86  PHE86      -0.1227
     81  CA       -25.4150   87.6130   -5.7350 C.3    86  PHE86       0.1736
     82  C        -26.4910   88.4430   -6.4090 C.2    86  PHE86       0.2595
     83  O        -26.8510   88.1880   -7.5630 O.2    86  PHE86      -0.2718
     84  CB       -24.0600   88.3290   -5.8060 C.3    86  PHE86       0.0547
     85  CG       -23.2530   88.2490   -4.5340 C.ar   86  PHE86      -0.0202
     86  CD1      -23.2460   89.3450   -3.6360 C.ar   86  PHE86      -0.0042
     87  CD2      -22.4920   87.0880   -4.2370 C.ar   86  PHE86      -0.0042
     88  CE1      -22.5010   89.2860   -2.4590 C.ar   86  PHE86      -0.0003
     89  CE2      -21.7450   87.0170   -3.0560 C.ar   86  PHE86      -0.0003
     90  CZ       -21.7500   88.1190   -2.1670 C.ar   86  PHE86      -0.0000
     91  N        -27.0210   89.4200   -5.6740 N.am   87  LEU87      -0.1966
     92  CA       -27.9940   90.3450   -6.2330 C.3    87  LEU87       0.1728
     93  C        -27.5190   91.7780   -6.0530 C.2    87  LEU87       0.2616
     94  O        -26.8870   92.1160   -5.0440 O.2    87  LEU87      -0.2715
     95  CB       -29.3730   90.1560   -5.5880 C.3    87  LEU87       0.0311
     96  CG       -30.1220   88.8020   -5.7330 C.3    87  LEU87       0.0022
     97  CD1      -31.4690   88.8560   -5.0220 C.3    87  LEU87       0.0001
     98  CD2      -30.3170   88.3560   -7.2050 C.3    87  LEU87       0.0001
     99  N        -27.8250   92.6080   -7.0440 N.am   88  PHE88      -0.1974
    100  CA       -27.5080   94.0290   -7.0170 C.3    88  PHE88       0.1639
    101  C        -28.4580   94.7450   -6.0520 C.2    88  PHE88       0.2290
    102  O        -29.6310   94.9550   -6.3790 O.2    88  PHE88      -0.2864
    103  CB       -27.7000   94.6000   -8.4210 C.3    88  PHE88       0.0560
    104  CG       -26.6240   95.5470   -8.8650 C.ar   88  PHE88      -0.0200
    105  CD1      -25.8750   96.2790   -7.9470 C.ar   88  PHE88      -0.0042
    106  CD2      -26.3910   95.7350  -10.2250 C.ar   88  PHE88      -0.0042
    107  CE1      -24.8920   97.1570   -8.3790 C.ar   88  PHE88      -0.0003
    108  CE2      -25.4150   96.6100  -10.6640 C.ar   88  PHE88      -0.0003
    109  CZ       -24.6640   97.3250   -9.7400 C.ar   88  PHE88      -0.0000
    110  N        -23.8640   95.0930   -2.7800 N.3   143  PHE143     -0.1241
    111  CA       -24.2950   93.7270   -3.1040 C.3   143  PHE143      0.1605
    112  C        -24.9880   92.9290   -2.0080 C.2   143  PHE143      0.2264
    113  O        -24.7210   93.1180   -0.8190 O.2   143  PHE143     -0.2867
    114  CB       -23.1240   92.9130   -3.6470 C.3   143  PHE143      0.0534
    115  CG       -22.8640   93.1560   -5.0980 C.ar  143  PHE143     -0.0203
    116  CD1      -23.9320   93.3590   -5.9710 C.ar  143  PHE143     -0.0042
    117  CD2      -21.5610   93.1780   -5.6000 C.ar  143  PHE143     -0.0042
    118  CE1      -23.7080   93.5910   -7.3110 C.ar  143  PHE143     -0.0003
    119  CE2      -21.3250   93.4090   -6.9500 C.ar  143  PHE143     -0.0003
    120  CZ       -22.3980   93.6170   -7.8020 C.ar  143  PHE143     -0.0000
@<TRIPOS>BOND
     1    26    27    1
     2    27    28    1
     3    27    30    1
     4    32    34   ar
     5    32    31   ar
     6    34    36   ar
     7    28    29    2
     8    30    31    1
     9    31    33   ar
    10    36    35   ar
    11    33    35   ar
    12    19    18    2
    13    18    17    1
    14    58    57    2
    15    41    42    1
    16    41    38    1
    17    42    43    1
    18    59    57   am
    19    57    56    1
    20    20    17    1
    21    20    21    1
    22    37    38    1
    23    39    38    1
    24    39    40    2
    25    17    16    1
    26    43    45   ar
    27    43    44   ar
    28    12    11    2
    29    21    23   ar
    30    21    22   ar
    31    23    25   ar
    32    56    55    1
    33    16    11   am
    34    55    52    1
    35    11    10    1
    36     7     6    1
    37     4     3    2
    38    22    24   ar
    39    25    24   ar
    40     5     6    1
    41     5     2    1
    42    46    47    1
    43    52    51    1
    44    52    53    1
    45    10     9    1
    46    10    13    1
    47    51    48   am
    48     3     9   am
    49     3     2    1
    50     6     8    1
    51    53    54    2
    52     9    15    1
    53     2     1    1
    54    13    14    1
    55    47    50    1
    56    47    48    1
    57    48    49    2
    58    15    14    1
    59   108   106   ar
    60   108   109   ar
    61   106   104   ar
    62   109   107   ar
    63    79    77   am
    64   104   103    1
    65   104   105   ar
    66    60    61    1
    67   103   100    1
    68   107   105   ar
    69    61    62    1
    70    62    63    2
    71    77    76    1
    72    77    78    2
    73   120   118   ar
    74   120   119   ar
    75    83    82    2
    76    70    69    1
    77    76    73    1
    78   118   116   ar
    79    75    74    2
    80    98    96    1
    81    99   100    1
    82    99    93   am
    83   100   101    1
    84   119   117   ar
    85    74    73    1
    86    82    81    1
    87    82    91   am
    88    80    81    1
    89   102   101    2
    90    92    93    1
    91    92    91    1
    92    92    95    1
    93    73    72    1
    94    93    94    2
    95   116   115   ar
    96    69    68    1
    97    69    71    1
    98    68    65    1
    99    84    81    1
   100    84    85    1
   101    96    95    1
   102    96    97    1
   103   117   115   ar
   104   115   114    1
   105    64    65    1
   106    65    66    1
   107    85    87   ar
   108    85    86   ar
   109    66    67    2
   110    87    89   ar
   111   114   111    1
   112    86    88   ar
   113   111   110    1
   114   111   112    1
   115    89    90   ar
   116    88    90   ar
   117   112   113    2
