@<TRIPOS>MOLECULE
tmp/3azqA00.pdb
 131 128 0 0 0
SMALL
GASTEIGER

@<TRIPOS>ATOM
      1  N        -33.8340  -18.1060   12.2810 N.3    76  TYR76      -0.1241
      2  CA       -33.5470  -18.9930   11.1570 C.3    76  TYR76       0.1605
      3  C        -32.6140  -18.3550   10.1260 C.2    76  TYR76       0.2264
      4  O        -32.2070  -19.0200    9.1760 O.2    76  TYR76      -0.2867
      5  CB       -34.8410  -19.4310   10.4600 C.3    76  TYR76       0.0534
      6  CG       -35.6740  -20.4170   11.2480 C.ar   76  TYR76      -0.0201
      7  CD1      -36.9470  -20.0740   11.7240 C.ar   76  TYR76      -0.0009
      8  CD2      -35.1840  -21.6940   11.5360 C.ar   76  TYR76      -0.0009
      9  CE1      -37.7050  -20.9780   12.4680 C.ar   76  TYR76       0.0417
     10  CE2      -35.9310  -22.6000   12.2800 C.ar   76  TYR76       0.0417
     11  CZ       -37.1870  -22.2360   12.7420 C.ar   76  TYR76       0.1957
     12  OH       -37.9090  -23.1430   13.4830 O.3    76  TYR76      -0.2866
     13  N        -40.1410  -18.5520    5.6960 N.3   291  TRP291     -0.1241
     14  CA       -39.5200  -18.7110    7.0080 C.3   291  TRP291      0.1605
     15  C        -38.4720  -17.6450    7.3480 C.2   291  TRP291      0.2264
     16  O        -38.2650  -17.3330    8.5200 O.2   291  TRP291     -0.2867
     17  CB       -38.8930  -20.0960    7.1440 C.3   291  TRP291      0.0550
     18  CG       -39.9000  -21.1960    7.1850 C.ar  291  TRP291      0.0003
     19  CD1      -40.5330  -21.7730    6.1200 C.ar  291  TRP291      0.0946
     20  CD2      -40.4160  -21.8370    8.3540 C.ar  291  TRP291      0.0152
     21  NE1      -41.4120  -22.7360    6.5530 N.ar  291  TRP291     -0.2442
     22  CE2      -41.3610  -22.7960    7.9220 C.ar  291  TRP291      0.0810
     23  CE3      -40.1730  -21.6920    9.7280 C.ar  291  TRP291      0.0012
     24  CZ2      -42.0650  -23.6100    8.8150 C.ar  291  TRP291      0.0191
     25  CZ3      -40.8700  -22.4970   10.6160 C.ar  291  TRP291      0.0001
     26  CH2      -41.8070  -23.4460   10.1550 C.ar  291  TRP291      0.0015
     27  N        -39.3230  -31.3110    9.2490 N.3   431  GLY431     -0.1210
     28  CA       -39.5930  -30.2570   10.2060 C.3   431  GLY431      0.1956
     29  C        -40.5640  -29.2460    9.6380 C.2   431  GLY431      0.2612
     30  O        -41.0420  -29.3950    8.5200 O.2   431  GLY431     -0.2717
     31  N        -40.8570  -28.2050   10.4050 N.am  432  GLY432     -0.1956
     32  CA       -41.7940  -27.1980    9.9420 C.3   432  GLY432      0.1869
     33  C        -42.8620  -26.9370   10.9880 C.2   432  GLY432      0.2309
     34  O        -42.6260  -26.1860   11.9280 O.2   432  GLY432     -0.2863
     35  N        -52.3840  -30.5280   14.6350 N.3   478  TRP478     -0.1241
     36  CA       -51.0140  -30.9660   14.8860 C.3   478  TRP478      0.1605
     37  C        -51.0070  -32.0650   15.9400 C.2   478  TRP478      0.2264
     38  O        -51.7770  -32.0230   16.8920 O.2   478  TRP478     -0.2867
     39  CB       -50.1470  -29.7950   15.3450 C.3   478  TRP478      0.0550
     40  CG       -48.6950  -30.0130   15.0800 C.ar  478  TRP478      0.0003
     41  CD1      -48.1420  -30.5930   13.9680 C.ar  478  TRP478      0.0946
     42  CD2      -47.5980  -29.5900   15.8980 C.ar  478  TRP478      0.0152
     43  NE1      -46.7710  -30.5520   14.0440 N.ar  478  TRP478     -0.2442
     44  CE2      -46.4080  -29.9410   15.2160 C.ar  478  TRP478      0.0810
     45  CE3      -47.5020  -28.9450   17.1410 C.ar  478  TRP478      0.0012
     46  CZ2      -45.1390  -29.6670   15.7330 C.ar  478  TRP478      0.0191
     47  CZ3      -46.2390  -28.6720   17.6550 C.ar  478  TRP478      0.0001
     48  CH2      -45.0740  -29.0340   16.9490 C.ar  478  TRP478      0.0015
     49  N        -37.0340  -31.1820   15.0820 N.3   510  ALA510     -0.1231
     50  CA       -37.9640  -30.0760   15.2830 C.3   510  ALA510      0.1694
     51  C        -39.4150  -30.5780   15.2180 C.2   510  ALA510      0.2591
     52  O        -39.8190  -31.4390   16.0060 O.2   510  ALA510     -0.2718
     53  CB       -37.7280  -29.0110   14.2330 C.3   510  ALA510      0.0304
     54  N        -40.2040  -30.0420   14.2920 N.am  511  ALA511     -0.1980
     55  CA       -41.5850  -30.4890   14.1670 C.3   511  ALA511      0.1597
     56  C        -41.5300  -31.9850   13.8770 C.2   511  ALA511      0.2287
     57  O        -42.3570  -32.7610   14.3560 O.2   511  ALA511     -0.2864
     58  CB       -42.2790  -29.7530   13.0380 C.3   511  ALA511      0.0319
     59  N        -40.3150  -30.7140   20.0570 N.3   535  VAL535     -0.1245
     60  CA       -41.2100  -29.9080   20.8630 C.3   535  VAL535      0.1561
     61  C        -41.9410  -31.0150   21.6100 C.2   535  VAL535      0.2260
     62  O        -42.5870  -31.8620   20.9850 O.2   535  VAL535     -0.2867
     63  CB       -42.2220  -29.1130   20.0080 C.3   535  VAL535      0.0252
     64  CG1      -43.2050  -28.3900   20.9100 C.3   535  VAL535      0.0019
     65  CG2      -41.4990  -28.1090   19.1460 C.3   535  VAL535      0.0019
     66  N        -43.5940  -24.3850   26.0730 N.3   541  TRP541     -0.1241
     67  CA       -43.2910  -23.6910   24.8190 C.3   541  TRP541      0.1605
     68  C        -44.1280  -22.4250   24.6190 C.2   541  TRP541      0.2264
     69  O        -43.6250  -21.4180   24.1200 O.2   541  TRP541     -0.2867
     70  CB       -43.5070  -24.6480   23.6400 C.3   541  TRP541      0.0550
     71  CG       -42.5010  -24.5270   22.5150 C.ar  541  TRP541      0.0003
     72  CD1      -41.1590  -24.7600   22.5900 C.ar  541  TRP541      0.0946
     73  CD2      -42.7770  -24.2150   21.1410 C.ar  541  TRP541      0.0152
     74  NE1      -40.5820  -24.6210   21.3510 N.ar  541  TRP541     -0.2442
     75  CE2      -41.5510  -24.2860   20.4430 C.ar  541  TRP541      0.0810
     76  CE3      -43.9390  -23.8860   20.4340 C.ar  541  TRP541      0.0012
     77  CZ2      -41.4530  -24.0410   19.0680 C.ar  541  TRP541      0.0191
     78  CZ3      -43.8450  -23.6430   19.0670 C.ar  541  TRP541      0.0001
     79  CH2      -42.6060  -23.7230   18.3980 C.ar  541  TRP541      0.0015
     80  N        -42.0810  -17.8920   16.3870 N.3   550  GLU550     -0.1245
     81  CA       -43.0180  -18.9980   16.5120 C.3   550  GLU550      0.1567
     82  C        -43.7020  -19.0190   17.8790 C.2   550  GLU550      0.2260
     83  O        -44.3180  -20.0100   18.2660 O.2   550  GLU550     -0.2867
     84  CB       -42.2970  -20.3220   16.2340 C.3   550  GLU550      0.0388
     85  CG       -41.6200  -20.3490   14.8680 C.3   550  GLU550      0.1160
     86  CD       -40.9800  -21.6840   14.5370 C.2   550  GLU550      0.3649
     87  OE1      -41.7110  -22.6350   14.1900 O.co2 550  GLU550     -0.2457
     88  OE2      -39.7430  -21.7890   14.6270 O.co2 550  GLU550     -0.2457
     89  N        -47.1310  -19.8420   17.0100 N.3   553  TYR553     -0.1241
     90  CA       -47.3310  -20.8040   15.9280 C.3   553  TYR553      0.1605
     91  C        -48.3340  -21.8700   16.3930 C.2   553  TYR553      0.2264
     92  O        -49.0540  -22.4620   15.5840 O.2   553  TYR553     -0.2867
     93  CB       -45.9850  -21.4490   15.5620 C.3   553  TYR553      0.0534
     94  CG       -45.9460  -22.2650   14.2770 C.ar  553  TYR553     -0.0201
     95  CD1      -44.7770  -22.9250   13.8920 C.ar  553  TYR553     -0.0009
     96  CD2      -47.0640  -22.3850   13.4520 C.ar  553  TYR553     -0.0009
     97  CE1      -44.7220  -23.6860   12.7220 C.ar  553  TYR553      0.0417
     98  CE2      -47.0190  -23.1490   12.2740 C.ar  553  TYR553      0.0417
     99  CZ       -45.8460  -23.7950   11.9170 C.ar  553  TYR553      0.1957
    100  OH       -45.7920  -24.5520   10.7650 O.3   553  TYR553     -0.2866
    101  N        -51.2900  -24.4870   14.8450 N.3   557  LEU557     -0.1245
    102  CA       -51.1200  -25.9270   14.9810 C.3   557  LEU557      0.1561
    103  C        -52.1230  -26.6790   15.8660 C.2   557  LEU557      0.2260
    104  O        -52.5670  -27.7770   15.5030 O.2   557  LEU557     -0.2867
    105  CB       -49.6930  -26.2190   15.4550 C.3   557  LEU557      0.0270
    106  CG       -48.5820  -25.6460   14.5720 C.3   557  LEU557      0.0019
    107  CD1      -47.2510  -25.7660   15.2900 C.3   557  LEU557      0.0001
    108  CD2      -48.5430  -26.3770   13.2360 C.3   557  LEU557      0.0001
    109  N        -34.8400  -22.2220   19.4890 N.3   594  VAL594     -0.1231
    110  CA       -36.1450  -22.5980   18.9400 C.3   594  VAL594      0.1692
    111  C        -36.7840  -23.6770   19.8110 C.2   594  VAL594      0.2592
    112  O        -37.9570  -23.6020   20.1710 O.2   594  VAL594     -0.2718
    113  CB       -36.0060  -23.1380   17.5080 C.3   594  VAL594      0.0266
    114  CG1      -37.3580  -23.5320   16.9640 C.3   594  VAL594      0.0020
    115  CG2      -35.3810  -22.0850   16.6250 C.3   594  VAL594      0.0020
    116  N        -35.9940  -24.6920   20.1280 N.am  595  CYS595     -0.1970
    117  CA       -36.4430  -25.7810   20.9730 C.3   595  CYS595      0.1712
    118  C        -35.3870  -25.9160   22.0560 C.2   595  CYS595      0.2296
    119  O        -34.4040  -26.6380   21.8960 O.2   595  CYS595     -0.2864
    120  CB       -36.5590  -27.0740   20.1630 C.3   595  CYS595      0.0983
    121  SG       -37.8910  -27.0410   18.9440 S.3   595  CYS595     -0.0798
    122  N        -30.1910  -24.7140   16.9320 N.3   624  HIS624     -0.1241
    123  CA       -31.2790  -25.4950   16.3660 C.3   624  HIS624      0.1621
    124  C        -30.7340  -26.1330   15.0980 C.2   624  HIS624      0.2264
    125  O        -30.4750  -25.4410   14.1190 O.2   624  HIS624     -0.2867
    126  CB       -32.4500  -24.5770   16.0380 C.3   624  HIS624      0.0745
    127  CG       -33.7180  -25.3060   15.7400 C.ar  624  HIS624      0.0817
    128  ND1      -34.2800  -26.2040   16.6190 N.ar  624  HIS624     -0.2268
    129  CD2      -34.5500  -25.2480   14.6730 C.ar  624  HIS624      0.1154
    130  CE1      -35.4070  -26.6680   16.1090 C.ar  624  HIS624      0.1986
    131  NE2      -35.5940  -26.1030   14.9290 N.ar  624  HIS624     -0.2212
@<TRIPOS>BOND
     1    13    14    1
     2    19    21   ar
     3    19    18   ar
     4    21    22   ar
     5    14    17    1
     6    14    15    1
     7    17    18    1
     8    18    20   ar
     9    15    16    2
    10    22    20   ar
    11    22    24   ar
    12    20    23   ar
    13    30    29    2
    14    24    26   ar
    15     4     3    2
    16    27    28    1
    17    29    28    1
    18    29    31   am
    19    23    25   ar
    20    32    31    1
    21    32    33    1
    22     3     2    1
    23    26    25   ar
    24     5     2    1
    25     5     6    1
    26   100    99    1
    27    33    34    2
    28     2     1    1
    29     6     8   ar
    30     6     7   ar
    31     8    10   ar
    32     7     9   ar
    33    99    98   ar
    34    99    97   ar
    35    98    96   ar
    36    10    11   ar
    37     9    11   ar
    38    97    95   ar
    39    11    12    1
    40    58    55    1
    41   108   106    1
    42    96    94   ar
    43    56    55    1
    44    56    57    2
    45    95    94   ar
    46    41    43   ar
    47    41    40   ar
    48    43    44   ar
    49   125   124    2
    50    55    54    1
    51    87    86   ar
    52    53    50    1
    53    94    93    1
    54    54    51   am
    55    86    88   ar
    56    86    85    1
    57   106   107    1
    58   106   105    1
    59    35    36    1
    60   129   131   ar
    61   129   127   ar
    62   101   102    1
    63    85    84    1
    64    36    39    1
    65    36    37    1
    66   131   130   ar
    67   102   105    1
    68   102   103    1
    69    40    39    1
    70    40    42   ar
    71    49    50    1
    72   124   123    1
    73    44    46   ar
    74    44    42   ar
    75    51    50    1
    76    51    52    2
    77   104   103    2
    78    93    90    1
    79    92    91    2
    80    46    48   ar
    81   127   126    1
    82   127   128   ar
    83    42    45   ar
    84    90    91    1
    85    90    89    1
    86    37    38    2
    87   126   123    1
    88   130   128   ar
    89    84    81    1
    90   123   122    1
    91    80    81    1
    92    81    82    1
    93   115   113    1
    94    48    47   ar
    95   114   113    1
    96    45    47   ar
    97   113   110    1
    98    82    83    2
    99    79    78   ar
   100    79    77   ar
   101   110   109    1
   102   110   111    1
   103   121   120    1
   104    78    76   ar
   105    77    75   ar
   106    65    63    1
   107   111   116   am
   108   111   112    2
   109    63    60    1
   110    63    64    1
   111    59    60    1
   112   116   117    1
   113   120   117    1
   114    76    73   ar
   115    75    73   ar
   116    75    74   ar
   117    60    61    1
   118   117   118    1
   119    62    61    2
   120    73    71   ar
   121    74    72   ar
   122   119   118    2
   123    71    72   ar
   124    71    70    1
   125    70    67    1
   126    69    68    2
   127    68    67    1
   128    67    66    1
