@<TRIPOS>MOLECULE
tmp/3azrB01.pdb
 182 182 0 0 0
SMALL
GASTEIGER

@<TRIPOS>ATOM
      1  N         16.3880   11.0820   39.8940 N.3    17  ASN17      -0.1240
      2  CA        15.5870   11.7700   38.8930 C.3    17  ASN17       0.1653
      3  C         14.2230   12.1500   39.5370 C.2    17  ASN17       0.2266
      4  O         13.2020   12.1960   38.8680 O.2    17  ASN17      -0.2867
      5  CB        15.4300   10.9020   37.6330 C.3    17  ASN17       0.1155
      6  CG        16.6270   11.0370   36.6660 C.2    17  ASN17       0.2627
      7  OD1       16.4590   11.4340   35.5180 O.2    17  ASN17      -0.2716
      8  ND2       17.8120   10.6940   37.1230 N.am   17  ASN17      -0.0877
      9  N         15.8610   15.7600   43.2300 N.3    20  GLU20      -0.1245
     10  CA        17.0260   16.5810   42.8820 C.3    20  GLU20       0.1567
     11  C         16.7530   17.3720   41.5900 C.2    20  GLU20       0.2260
     12  O         17.5480   18.1970   41.1750 O.2    20  GLU20      -0.2867
     13  CB        18.3340   15.7410   42.7970 C.3    20  GLU20       0.0388
     14  CG        18.6190   14.9660   41.4870 C.3    20  GLU20       0.1160
     15  CD        17.8680   13.6360   41.3770 C.2    20  GLU20       0.3649
     16  OE1       16.8040   13.4750   42.0130 O.co2  20  GLU20      -0.2457
     17  OE2       18.3340   12.7340   40.6380 O.co2  20  GLU20      -0.2457
     18  N         11.9120   15.3850   36.3280 N.3    27  TRP27      -0.1241
     19  CA        12.8580   14.5360   35.6040 C.3    27  TRP27       0.1605
     20  C         12.3530   13.1110   35.4640 C.2    27  TRP27       0.2264
     21  O         13.1140   12.1960   35.1790 O.2    27  TRP27      -0.2867
     22  CB        14.2590   14.5570   36.2310 C.3    27  TRP27       0.0550
     23  CG        15.0090   15.8290   36.0040 C.ar   27  TRP27       0.0003
     24  CD1       14.5720   16.9150   35.3040 C.ar   27  TRP27       0.0946
     25  CD2       16.2930   16.1670   36.5240 C.ar   27  TRP27       0.0152
     26  NE1       15.5110   17.9280   35.3710 N.ar   27  TRP27      -0.2442
     27  CE2       16.5810   17.4810   36.1080 C.ar   27  TRP27       0.0810
     28  CE3       17.2370   15.4780   37.3010 C.ar   27  TRP27       0.0012
     29  CZ2       17.7760   18.1190   36.4330 C.ar   27  TRP27       0.0191
     30  CZ3       18.4160   16.1120   37.6240 C.ar   27  TRP27       0.0001
     31  CH2       18.6860   17.4180   37.1900 C.ar   27  TRP27       0.0015
     32  N         19.1290    6.0360   49.1360 N.3    48  ARG48      -0.1245
     33  CA        19.7510    7.3430   49.1330 C.3    48  ARG48       0.1563
     34  C         18.7620    8.1970   48.3770 C.2    48  ARG48       0.2260
     35  O         18.2760    7.7620   47.3490 O.2    48  ARG48      -0.2867
     36  CB        21.0850    7.2970   48.3980 C.3    48  ARG48       0.0307
     37  CG        21.7840    8.6800   48.3740 C.3    48  ARG48       0.0489
     38  CD        23.2690    8.4630   47.9990 C.3    48  ARG48       0.2205
     39  NE        23.9720    9.7210   47.8080 N.pl3  48  ARG48      -0.0865
     40  CZ        24.1170   10.3530   46.6400 C.cat  48  ARG48       0.5346
     41  NH1       23.6020    9.8550   45.5330 N.pl3  48  ARG48       0.1354
     42  NH2       24.8020   11.4890   46.5800 N.pl3  48  ARG48       0.1354
     43  N         21.7280   18.2890   46.7170 N.3    92  HIS92      -0.1226
     44  CA        22.1040   17.7960   45.3740 C.3    92  HIS92       0.1752
     45  C         21.7810   18.9170   44.3810 C.2    92  HIS92       0.2596
     46  O         20.8950   19.6410   44.5790 O.2    92  HIS92      -0.2718
     47  CB        21.2470   16.5610   45.0290 C.3    92  HIS92       0.0759
     48  CG        21.8500   15.5200   44.1030 C.ar   92  HIS92       0.0818
     49  ND1       22.2760   14.2810   44.5190 N.ar   92  HIS92      -0.2268
     50  CD2       21.9710   15.5040   42.7800 C.ar   92  HIS92       0.1154
     51  CE1       22.6330   13.5800   43.4710 C.ar   92  HIS92       0.1986
     52  NE2       22.3950   14.2740   42.4090 N.ar   92  HIS92      -0.2212
     53  N         22.5740   18.9960   43.3840 N.am   93  HIS93      -0.1975
     54  CA        22.4030   19.9990   42.3560 C.3    93  HIS93       0.1656
     55  C         22.2160   21.4380   42.8210 C.2    93  HIS93       0.2291
     56  O         21.3020   22.0980   42.3600 O.2    93  HIS93      -0.2864
     57  CB        21.2380   19.5910   41.4690 C.3    93  HIS93       0.0771
     58  CG        21.5390   18.3910   40.6290 C.ar   93  HIS93       0.0820
     59  ND1       20.5950   17.4420   40.3070 N.ar   93  HIS93      -0.2267
     60  CD2       22.7150   17.9310   40.1490 C.ar   93  HIS93       0.1154
     61  CE1       21.1780   16.4360   39.6710 C.ar   93  HIS93       0.1986
     62  NE2       22.4640   16.7080   39.5660 N.ar   93  HIS93      -0.2212
     63  N         26.3100   16.5510   47.3710 N.3   132  ASN132     -0.1225
     64  CA        26.5760   15.6690   46.2640 C.3   132  ASN132      0.1785
     65  C         27.5220   16.3290   45.2540 C.2   132  ASN132      0.2597
     66  O         27.3600   17.5110   44.8700 O.2   132  ASN132     -0.2718
     67  CB        25.2740   15.3410   45.5450 C.3   132  ASN132      0.1169
     68  CG        25.5050   14.4720   44.3460 C.2   132  ASN132      0.2627
     69  OD1       25.7640   13.2610   44.4710 O.2   132  ASN132     -0.2716
     70  ND2       25.4600   15.0830   43.1580 N.am  132  ASN132     -0.0877
     71  N         28.5060   15.5520   44.8200 N.am  133  GLU133     -0.1979
     72  CA        29.4770   15.9200   43.8000 C.3   133  GLU133      0.1602
     73  C         29.9440   17.3650   43.6230 C.2   133  GLU133      0.2287
     74  O         29.7200   17.9810   42.5810 O.2   133  GLU133     -0.2864
     75  CB        29.0050   15.3590   42.4560 C.3   133  GLU133      0.0415
     76  CG        28.7510   13.8400   42.5060 C.3   133  GLU133      0.1163
     77  CD        28.5530   13.1580   41.1400 C.2   133  GLU133      0.3649
     78  OE1       28.3150   13.8490   40.1260 O.co2 133  GLU133     -0.2457
     79  OE2       28.6290   11.8980   41.0990 O.co2 133  GLU133     -0.2457
     80  N         33.7390   16.4110   41.0720 N.3   170  TRP170     -0.1241
     81  CA        32.6240   15.5220   40.7510 C.3   170  TRP170      0.1605
     82  C         32.4110   14.2900   41.6110 C.2   170  TRP170      0.2264
     83  O         31.6780   13.3820   41.2250 O.2   170  TRP170     -0.2867
     84  CB        32.6290   15.1050   39.2780 C.3   170  TRP170      0.0550
     85  CG        32.4490   16.2430   38.3420 C.ar  170  TRP170      0.0003
     86  CD1       33.4280   16.9040   37.6350 C.ar  170  TRP170      0.0946
     87  CD2       31.2070   16.8440   37.9680 C.ar  170  TRP170      0.0152
     88  NE1       32.8560   17.8800   36.8370 N.ar  170  TRP170     -0.2442
     89  CE2       31.4950   17.8590   37.0280 C.ar  170  TRP170      0.0810
     90  CE3       29.8730   16.6140   38.3310 C.ar  170  TRP170      0.0012
     91  CZ2       30.4870   18.6480   36.4470 C.ar  170  TRP170      0.0191
     92  CZ3       28.8710   17.4100   37.7520 C.ar  170  TRP170      0.0001
     93  CH2       29.1920   18.4050   36.8250 C.ar  170  TRP170      0.0015
     94  N         31.8570    8.2560   44.3850 N.3   193  HIS193     -0.1241
     95  CA        30.9760    7.7560   43.3500 C.3   193  HIS193      0.1621
     96  C         31.8590    7.1140   42.3350 C.2   193  HIS193      0.2264
     97  O         32.9160    7.6420   41.9970 O.2   193  HIS193     -0.2867
     98  CB        30.1840    8.9010   42.7270 C.3   193  HIS193      0.0745
     99  CG        29.2420    9.5090   43.7130 C.ar  193  HIS193      0.0817
    100  ND1       28.4950   10.6410   43.4550 N.ar  193  HIS193     -0.2268
    101  CD2       28.8900    9.0930   44.9510 C.ar  193  HIS193      0.1154
    102  CE1       27.7200   10.8910   44.4940 C.ar  193  HIS193      0.1986
    103  NE2       27.9400    9.9670   45.4160 N.ar  193  HIS193     -0.2212
    104  N         32.1390    5.5820   38.5520 N.3   195  TYR195     -0.1241
    105  CA        31.5900    5.4350   37.2290 C.3   195  TYR195      0.1605
    106  C         32.6810    5.1280   36.2190 C.2   195  TYR195      0.2264
    107  O         32.4670    5.2850   35.0420 O.2   195  TYR195     -0.2867
    108  CB        30.8980    6.7490   36.8420 C.3   195  TYR195      0.0534
    109  CG        29.6450    6.9940   37.6080 C.ar  195  TYR195     -0.0201
    110  CD1       28.5250    6.1530   37.4240 C.ar  195  TYR195     -0.0009
    111  CD2       29.5330    8.0710   38.5010 C.ar  195  TYR195     -0.0009
    112  CE1       27.3160    6.3990   38.1020 C.ar  195  TYR195      0.0417
    113  CE2       28.3110    8.2940   39.2110 C.ar  195  TYR195      0.0417
    114  CZ        27.2240    7.4740   38.9940 C.ar  195  TYR195      0.1957
    115  OH        26.0020    7.7750   39.6110 O.3   195  TYR195     -0.2866
    116  N         28.8970    6.0930   30.8170 N.3   202  HIS202     -0.1241
    117  CA        28.1890    7.2750   30.3310 C.3   202  HIS202      0.1621
    118  C         28.0010    7.4430   28.8080 C.2   202  HIS202      0.2264
    119  O         27.6480    8.4300   28.3250 O.2   202  HIS202     -0.2867
    120  CB        28.8010    8.5660   31.0030 C.3   202  HIS202      0.0745
    121  CG        28.2930    8.8470   32.3920 C.ar  202  HIS202      0.0817
    122  ND1       28.5630    8.0490   33.4430 N.ar  202  HIS202     -0.2268
    123  CD2       27.4580    9.7720   32.8500 C.ar  202  HIS202      0.1154
    124  CE1       27.9430    8.4820   34.5110 C.ar  202  HIS202      0.1986
    125  NE2       27.2530    9.5310   34.1760 N.ar  202  HIS202     -0.2212
    126  N         23.2680   14.2500   28.7830 N.3   207  TRP207     -0.1241
    127  CA        23.7460   15.3980   29.5620 C.3   207  TRP207      0.1605
    128  C         25.2770   15.5120   29.6200 C.2   207  TRP207      0.2264
    129  O         25.8150   16.3930   30.2860 O.2   207  TRP207     -0.2867
    130  CB        23.1290   15.3480   30.9850 C.3   207  TRP207      0.0550
    131  CG        23.5150   14.1190   31.8090 C.ar  207  TRP207      0.0003
    132  CD1       24.5110   14.0390   32.7440 C.ar  207  TRP207      0.0946
    133  CD2       22.9760   12.7730   31.6750 C.ar  207  TRP207      0.0152
    134  NE1       24.6420   12.7280   33.1790 N.ar  207  TRP207     -0.2442
    135  CE2       23.7200   11.9390   32.5420 C.ar  207  TRP207      0.0810
    136  CE3       21.9460   12.2070   30.9110 C.ar  207  TRP207      0.0012
    137  CZ2       23.4840   10.5650   32.6560 C.ar  207  TRP207      0.0191
    138  CZ3       21.6970   10.8090   31.0170 C.ar  207  TRP207      0.0001
    139  CH2       22.4740   10.0100   31.8830 C.ar  207  TRP207      0.0015
    140  N         27.0420    6.1880   44.7640 N.3   250  ALA250     -0.1245
    141  CA        26.4330    6.1340   43.4510 C.3   250  ALA250      0.1562
    142  C         27.4030    5.4380   42.4950 C.2   250  ALA250      0.2260
    143  O         28.5740    5.7700   42.4690 O.2   250  ALA250     -0.2867
    144  CB        26.1200    7.5560   42.9350 C.3   250  ALA250      0.0290
    145  N         23.0880    3.4380   41.3680 N.3   283  TRP283     -0.1227
    146  CA        22.4700    4.5320   40.6140 C.3   283  TRP283      0.1737
    147  C         21.8480    3.9250   39.3490 C.2   283  TRP283      0.2595
    148  O         22.5670    3.4660   38.4480 O.2   283  TRP283     -0.2718
    149  CB        23.4970    5.5890   40.1710 C.3   283  TRP283      0.0564
    150  CG        22.8410    6.7950   39.5400 C.ar  283  TRP283      0.0003
    151  CD1       22.6020    7.0080   38.1960 C.ar  283  TRP283      0.0946
    152  CD2       22.2290    7.8850   40.2330 C.ar  283  TRP283      0.0152
    153  NE1       21.8610    8.1600   38.0180 N.ar  283  TRP283     -0.2442
    154  CE2       21.6050    8.7140   39.2460 C.ar  283  TRP283      0.0810
    155  CE3       22.1210    8.2320   41.5930 C.ar  283  TRP283      0.0012
    156  CZ2       20.8740    9.8660   39.5840 C.ar  283  TRP283      0.0191
    157  CZ3       21.3860    9.3960   41.9430 C.ar  283  TRP283      0.0001
    158  CH2       20.7720   10.1950   40.9230 C.ar  283  TRP283      0.0015
    159  N         20.5160    3.8470   39.2640 N.am  284  GLU284     -0.1979
    160  CA        19.5650    4.2730   40.3100 C.3   284  GLU284      0.1602
    161  C         18.3440    3.3620   40.2020 C.2   284  GLU284      0.2287
    162  O         18.3460    2.3870   39.4790 O.2   284  GLU284     -0.2864
    163  CB        19.2040    5.7820   40.2100 C.3   284  GLU284      0.0415
    164  CG        19.3010    6.4370   38.8470 C.3   284  GLU284      0.1163
    165  CD        18.2310    5.9770   37.8710 C.2   284  GLU284      0.3649
    166  OE1       17.2030    5.4290   38.3150 O.co2 284  GLU284     -0.2457
    167  OE2       18.4090    6.1920   36.6490 O.co2 284  GLU284     -0.2457
    168  N         16.9920    6.3370   33.8700 N.3   288  GLY288     -0.1210
    169  CA        17.8500    5.8820   32.7820 C.3   288  GLY288      0.1956
    170  C         18.8550    4.7920   33.1220 C.2   288  GLY288      0.2611
    171  O         19.3550    4.1130   32.2210 O.2   288  GLY288     -0.2717
    172  N         19.1870    4.6460   34.3980 N.am  289  PHE289     -0.1976
    173  CA        20.1160    3.5740   34.8330 C.3   289  PHE289      0.1639
    174  C         19.3240    2.5320   35.5970 C.2   289  PHE289      0.2290
    175  O         19.8900    1.5990   36.1790 O.2   289  PHE289     -0.2864
    176  CB        21.1560    4.1040   35.8140 C.3   289  PHE289      0.0560
    177  CG        22.1650    5.0620   35.2220 C.ar  289  PHE289     -0.0200
    178  CD1       23.5430    4.7430   35.2480 C.ar  289  PHE289     -0.0042
    179  CD2       21.7810    6.3090   34.7290 C.ar  289  PHE289     -0.0042
    180  CE1       24.5090    5.6180   34.8080 C.ar  289  PHE289     -0.0003
    181  CE2       22.7680    7.2310   34.2700 C.ar  289  PHE289     -0.0003
    182  CZ        24.1350    6.8730   34.3110 C.ar  289  PHE289     -0.0000
@<TRIPOS>BOND
     1   119   118    2
     2   126   127    1
     3   118   117    1
     4   127   128    1
     5   127   130    1
     6   128   129    2
     7   117   116    1
     8   117   120    1
     9   136   138   ar
    10   136   133   ar
    11   130   131    1
    12   120   121    1
    13   138   139   ar
    14   133   131   ar
    15   133   135   ar
    16   131   132   ar
    17   139   137   ar
    18   171   170    2
    19   121   123   ar
    20   121   122   ar
    21   135   137   ar
    22   135   134   ar
    23   132   134   ar
    24   169   170    1
    25   169   168    1
    26   123   125   ar
    27   170   172   am
    28   122   124   ar
    29   125   124   ar
    30   181   182   ar
    31   181   179   ar
    32   182   180   ar
    33   172   173    1
    34   179   177   ar
    35   180   178   ar
    36   173   174    1
    37   173   176    1
    38   107   106    2
    39    21    20    2
    40   177   178   ar
    41   177   176    1
    42    24    26   ar
    43    24    23   ar
    44    26    27   ar
    45    20    19    1
    46     7     6    2
    47   174   175    2
    48    19    22    1
    49    19    18    1
    50    23    22    1
    51    23    25   ar
    52    27    29   ar
    53    27    25   ar
    54   106   105    1
    55    29    31   ar
    56    91    93   ar
    57    91    89   ar
    58    25    28   ar
    59   167   165   ar
    60     6     8   am
    61     6     5    1
    62    93    92   ar
    63    88    89   ar
    64    88    86   ar
    65   108   105    1
    66   108   109    1
    67    89    87   ar
    68    31    30   ar
    69   105   104    1
    70    28    30   ar
    71   110   109   ar
    72   110   112   ar
    73   109   111   ar
    74     5     2    1
    75    86    85   ar
    76    92    90   ar
    77   165   166   ar
    78   165   164    1
    79    87    90   ar
    80    87    85   ar
    81   153   151   ar
    82   153   154   ar
    83   112   114   ar
    84   151   150   ar
    85    85    84    1
    86   148   147    2
    87   111   113   ar
    88   164   163    1
    89     4     3    2
    90     2     3    1
    91     2     1    1
    92   114   113   ar
    93   114   115    1
    94   154   156   ar
    95   154   152   ar
    96   159   147   am
    97   159   160    1
    98    84    81    1
    99   147   146    1
   100   162   161    2
   101   150   149    1
   102   150   152   ar
   103    62    61   ar
   104    62    60   ar
   105   156   158   ar
   106    61    59   ar
   107    78    77   ar
   108    60    58   ar
   109   149   146    1
   110   161   160    1
   111   163   160    1
   112   152   155   ar
   113    59    58   ar
   114   146   145    1
   115    58    57    1
   116    17    15   ar
   117    81    80    1
   118    81    82    1
   119   158   157   ar
   120    79    77   ar
   121    77    76    1
   122    12    11    2
   123    83    82    2
   124    15    14    1
   125    15    16   ar
   126    57    54    1
   127    14    13    1
   128    11    10    1
   129   155   157   ar
   130    97    96    2
   131    96    95    1
   132    54    55    1
   133    54    53    1
   134    56    55    2
   135    52    50   ar
   136    52    51   ar
   137    75    76    1
   138    75    72    1
   139   143   142    2
   140   142   141    1
   141    74    73    2
   142    98    95    1
   143    98    99    1
   144    50    48   ar
   145    13    10    1
   146    10     9    1
   147   144   141    1
   148    70    68   am
   149    95    94    1
   150    53    45   am
   151   141   140    1
   152   100    99   ar
   153   100   102   ar
   154    51    49   ar
   155    73    72    1
   156    99   101   ar
   157    72    71    1
   158    48    49   ar
   159    48    47    1
   160    68    69    2
   161    68    67    1
   162    45    46    2
   163    45    44    1
   164   102   103   ar
   165    71    65   am
   166    66    65    2
   167   101   103   ar
   168    47    44    1
   169    65    64    1
   170    44    43    1
   171    41    40    1
   172    67    64    1
   173    64    63    1
   174    42    40    1
   175    40    39    2
   176    35    34    2
   177    39    38    1
   178    38    37    1
   179    37    36    1
   180    34    33    1
   181    36    33    1
   182    33    32    1
