@<TRIPOS>MOLECULE
tmp/3aztD00.pdb
 207 206 0 0 0
SMALL
GASTEIGER

@<TRIPOS>ATOM
      1  N         39.5890   19.9850   16.2960 N.3    20  ASN20      -0.1240
      2  CA        40.8720   20.6190   16.3220 C.3    20  ASN20       0.1653
      3  C         41.2900   20.7830   17.7760 C.2    20  ASN20       0.2266
      4  O         41.9370   21.7720   18.1520 O.2    20  ASN20      -0.2867
      5  CB        40.8400   21.9590   15.5790 C.3    20  ASN20       0.1155
      6  CG        40.8630   21.7800   14.0660 C.2    20  ASN20       0.2627
      7  OD1       41.0480   20.6640   13.5550 O.2    20  ASN20      -0.2716
      8  ND2       40.6770   22.8820   13.3380 N.am   20  ASN20      -0.0877
      9  N         42.2300   15.7150   18.9900 N.3    23  GLU23      -0.1245
     10  CA        42.7090   14.8960   17.8890 C.3    23  GLU23       0.1567
     11  C         43.9830   15.4630   17.2860 C.2    23  GLU23       0.2260
     12  O         44.5870   14.8640   16.4140 O.2    23  GLU23      -0.2867
     13  CB        41.6240   14.6520   16.8260 C.3    23  GLU23       0.0388
     14  CG        41.4290   15.7880   15.7720 C.3    23  GLU23       0.1160
     15  CD        40.5710   16.9500   16.2840 C.2    23  GLU23       0.3649
     16  OE1       39.8880   17.5830   15.4390 O.co2  23  GLU23      -0.2457
     17  OE2       40.5700   17.2320   17.4960 O.co2  23  GLU23      -0.2457
     18  N         47.2610   22.5100   20.0480 N.3    29  ASP29      -0.1225
     19  CA        48.1450   22.6680   18.8850 C.3    29  ASP29       0.1805
     20  C         47.3910   23.1030   17.6360 C.2    29  ASP29       0.2598
     21  O         47.9310   23.8270   16.8170 O.2    29  ASP29      -0.2718
     22  CB        48.8560   21.3710   18.5050 C.3    29  ASP29       0.1424
     23  CG        49.9260   20.9810   19.4740 C.2    29  ASP29       0.3668
     24  OD1       50.2780   21.7770   20.3930 O.co2  29  ASP29      -0.2456
     25  OD2       50.4170   19.8480   19.2900 O.co2  29  ASP29      -0.2456
     26  N         46.1670   22.6370   17.4740 N.am   30  TRP30      -0.1962
     27  CA        45.3900   23.0160   16.3080 C.3    30  TRP30       0.1771
     28  C         44.4070   24.1390   16.5880 C.2    30  TRP30       0.2620
     29  O         43.4790   24.3680   15.8190 O.2    30  TRP30      -0.2715
     30  CB        44.6790   21.7840   15.7220 C.3    30  TRP30       0.0590
     31  CG        45.6450   20.8380   15.0950 C.ar   30  TRP30       0.0006
     32  CD1       46.9890   21.0030   14.9730 C.ar   30  TRP30       0.0946
     33  CD2       45.3400   19.5670   14.4900 C.ar   30  TRP30       0.0152
     34  NE1       47.5490   19.9140   14.3250 N.ar   30  TRP30      -0.2442
     35  CE2       46.5530   19.0230   14.0220 C.ar   30  TRP30       0.0810
     36  CE3       44.1630   18.8470   14.2990 C.ar   30  TRP30       0.0012
     37  CZ2       46.6170   17.7780   13.3690 C.ar   30  TRP30       0.0191
     38  CZ3       44.2260   17.6030   13.6450 C.ar   30  TRP30       0.0001
     39  CH2       45.4380   17.0930   13.1950 C.ar   30  TRP30       0.0015
     40  N         44.5820   24.8230   17.7140 N.am   31  GLY31      -0.1954
     41  CA        43.7070   25.9560   17.9770 C.3    31  GLY31       0.1869
     42  C         42.6470   25.8660   19.0380 C.2    31  GLY31       0.2309
     43  O         42.1970   26.8860   19.5470 O.2    31  GLY31      -0.2863
     44  N         30.3760   15.4400   19.8870 N.3    51  ARG51      -0.1245
     45  CA        31.2270   14.3830   19.3920 C.3    51  ARG51       0.1563
     46  C         32.6330   14.8660   19.7070 C.2    51  ARG51       0.2260
     47  O         32.9930   16.0280   19.4470 O.2    51  ARG51      -0.2867
     48  CB        31.0620   14.1420   17.9000 C.3    51  ARG51       0.0307
     49  CG        32.1120   13.1780   17.3520 C.3    51  ARG51       0.0489
     50  CD        31.5430   12.4990   16.1250 C.3    51  ARG51       0.2205
     51  NE        32.4690   11.5720   15.4620 N.pl3  51  ARG51      -0.0865
     52  CZ        33.3940   11.9210   14.5870 C.cat  51  ARG51       0.5346
     53  NH1       33.5880   13.2050   14.2490 N.pl3  51  ARG51       0.1354
     54  NH2       34.0610   10.9920   13.9580 N.pl3  51  ARG51       0.1354
     55  N         40.7040    8.7200   16.5720 N.3    95  HIS95      -0.1226
     56  CA        40.8300    9.6640   15.5060 C.3    95  HIS95       0.1752
     57  C         42.2890    9.8910   15.1820 C.2    95  HIS95       0.2596
     58  O         43.0400    9.9990   15.9460 O.2    95  HIS95      -0.2718
     59  CB        40.1740   10.9490   15.9680 C.3    95  HIS95       0.0759
     60  CG        39.6360   11.9010   14.9120 C.ar   95  HIS95       0.0818
     61  ND1       38.3290   12.1950   14.8190 N.ar   95  HIS95      -0.2268
     62  CD2       40.2350   12.6610   13.9920 C.ar   95  HIS95       0.1154
     63  CE1       38.1340   13.0270   13.8410 C.ar   95  HIS95       0.1986
     64  NE2       39.2680   13.3360   13.3290 N.ar   95  HIS95      -0.2212
     65  N         42.5560    9.9890   13.9400 N.am   96  HIS96      -0.1975
     66  CA        43.8410   10.1970   13.3920 C.3    96  HIS96       0.1656
     67  C         44.9150    9.1980   13.8670 C.2    96  HIS96       0.2291
     68  O         45.8370    9.5250   14.2640 O.2    96  HIS96      -0.2864
     69  CB        44.3430   11.6360   13.6050 C.3    96  HIS96       0.0771
     70  CG        43.5550   12.7030   12.9010 C.ar   96  HIS96       0.0820
     71  ND1       43.2460   13.9270   13.4620 N.ar   96  HIS96      -0.2267
     72  CD2       42.9690   12.6890   11.7300 C.ar   96  HIS96       0.1154
     73  CE1       42.5400   14.6270   12.6280 C.ar   96  HIS96       0.1986
     74  NE2       42.3990   13.9200   11.5610 N.ar   96  HIS96      -0.2212
     75  N         37.5370    6.7960   13.3240 N.3   135  ASN135     -0.1225
     76  CA        37.2190    7.8770   12.4030 C.3   135  ASN135      0.1785
     77  C         37.8390    7.6900   11.0200 C.2   135  ASN135      0.2597
     78  O         39.0350    7.4320   10.8840 O.2   135  ASN135     -0.2718
     79  CB        37.7160    9.2180   12.9500 C.3   135  ASN135      0.1169
     80  CG        37.4080   10.3920   12.0090 C.2   135  ASN135      0.2627
     81  OD1       36.2830   10.8970   11.9700 O.2   135  ASN135     -0.2716
     82  ND2       38.4260   10.8400   11.2580 N.am  135  ASN135     -0.0877
     83  N         36.9900    7.8160   10.0090 N.am  136  GLU136     -0.1979
     84  CA        37.3830    7.7680    8.6020 C.3   136  GLU136      0.1602
     85  C         38.5410    6.8440    8.2050 C.2   136  GLU136      0.2287
     86  O         39.6530    7.2850    7.8550 O.2   136  GLU136     -0.2864
     87  CB        37.6660    9.2170    8.1520 C.3   136  GLU136      0.0415
     88  CG        36.4790   10.1230    8.4340 C.3   136  GLU136      0.1163
     89  CD        36.6320   11.5030    7.8260 C.2   136  GLU136      0.3649
     90  OE1       37.7110   11.7910    7.2560 O.co2 136  GLU136     -0.2457
     91  OE2       35.6700   12.2910    7.9230 O.co2 136  GLU136     -0.2457
     92  N         30.2070   10.5150    7.0670 N.3   196  HIS196     -0.1241
     93  CA        30.5500   11.9150    7.1320 C.3   196  HIS196      0.1621
     94  C         30.0870   12.4600    5.7830 C.2   196  HIS196      0.2264
     95  O         30.2050   11.7720    4.7780 O.2   196  HIS196     -0.2867
     96  CB        32.0420   12.0520    7.3820 C.3   196  HIS196      0.0745
     97  CG        32.4480   11.5680    8.7490 C.ar  196  HIS196      0.0817
     98  ND1       33.7550   11.4780    9.1540 N.ar  196  HIS196     -0.2268
     99  CD2       31.7020   11.1580    9.8070 C.ar  196  HIS196      0.1154
    100  CE1       33.8070   11.0300   10.3990 C.ar  196  HIS196      0.1986
    101  NE2       32.5710   10.8280   10.8190 N.ar  196  HIS196     -0.2212
    102  N         30.5010   15.5400    3.1510 N.3   198  TYR198     -0.1241
    103  CA        31.1420   16.7930    2.7710 C.3   198  TYR198      0.1605
    104  C         31.0190   17.1060    1.2700 C.2   198  TYR198      0.2264
    105  O         31.7580   17.9390    0.7480 O.2   198  TYR198     -0.2867
    106  CB        32.6160   16.7330    3.1440 C.3   198  TYR198      0.0534
    107  CG        32.8840   16.7160    4.6270 C.ar  198  TYR198     -0.0201
    108  CD1       32.7080   17.8690    5.4000 C.ar  198  TYR198     -0.0009
    109  CD2       33.4110   15.5910    5.2430 C.ar  198  TYR198     -0.0009
    110  CE1       33.0660   17.9000    6.7330 C.ar  198  TYR198      0.0417
    111  CE2       33.7650   15.6090    6.5910 C.ar  198  TYR198      0.0417
    112  CZ        33.5970   16.7520    7.3170 C.ar  198  TYR198      0.1957
    113  OH        33.9940   16.8000    8.6050 O.3   198  TYR198     -0.2866
    114  N         35.6550   21.8260    1.0760 N.3   205  HIS205     -0.1241
    115  CA        37.0210   21.9090    1.2830 C.3   205  HIS205      0.1621
    116  C         37.7790   22.8920    0.4350 C.2   205  HIS205      0.2264
    117  O         38.8510   22.8460    0.4180 O.2   205  HIS205     -0.2867
    118  CB        37.6540   20.5440    1.2420 C.3   205  HIS205      0.0745
    119  CG        37.3160   19.7220    2.4250 C.ar  205  HIS205      0.0817
    120  ND1       36.0930   19.2260    2.6280 N.ar  205  HIS205     -0.2268
    121  CD2       38.0160   19.4230    3.5080 C.ar  205  HIS205      0.1154
    122  CE1       36.0340   18.6220    3.7730 C.ar  205  HIS205      0.1986
    123  NE2       37.1980   18.7420    4.3350 N.ar  205  HIS205     -0.2212
    124  N         43.9490   24.1050    3.7440 N.3   209  GLU209     -0.1231
    125  CA        45.3890   23.9400    3.7090 C.3   209  GLU209      0.1699
    126  C         45.8680   22.4830    3.8170 C.2   209  GLU209      0.2592
    127  O         46.9090   22.1150    3.2840 O.2   209  GLU209     -0.2718
    128  CB        46.0210   24.8020    4.8100 C.3   209  GLU209      0.0402
    129  CG        45.8190   26.2990    4.6180 C.3   209  GLU209      0.1161
    130  CD        44.5040   26.8200    5.1710 C.2   209  GLU209      0.3649
    131  OE1       43.6160   26.0100    5.4760 O.co2 209  GLU209     -0.2457
    132  OE2       44.3500   28.0530    5.2920 O.co2 209  GLU209     -0.2457
    133  N         45.1090   21.6430    4.4880 N.am  210  TRP210     -0.1976
    134  CA        45.5190   20.2610    4.6410 C.3   210  TRP210      0.1640
    135  C         45.1210   19.3890    3.4590 C.2   210  TRP210      0.2290
    136  O         45.3580   18.1820    3.4810 O.2   210  TRP210     -0.2864
    137  CB        44.9280   19.6870    5.9320 C.3   210  TRP210      0.0576
    138  CG        43.4110   19.6470    5.9370 C.ar  210  TRP210      0.0006
    139  CD1       42.5970   18.5680    5.6870 C.ar  210  TRP210      0.0946
    140  CD2       42.5480   20.7440    6.2060 C.ar  210  TRP210      0.0152
    141  NE1       41.2810   18.9360    5.7890 N.ar  210  TRP210     -0.2442
    142  CE2       41.2220   20.2710    6.1020 C.ar  210  TRP210      0.0810
    143  CE3       42.7680   22.0960    6.5280 C.ar  210  TRP210      0.0012
    144  CZ2       40.1120   21.1030    6.3050 C.ar  210  TRP210      0.0191
    145  CZ3       41.6510   22.9360    6.7360 C.ar  210  TRP210      0.0001
    146  CH2       40.3440   22.4280    6.6210 C.ar  210  TRP210      0.0015
    147  N         29.8830   13.9220   10.9690 N.3   253  ALA253     -0.1245
    148  CA        30.5550   15.1560   10.6360 C.3   253  ALA253      0.1562
    149  C         30.0650   15.6690    9.2760 C.2   253  ALA253      0.2260
    150  O         29.8870   14.8940    8.3420 O.2   253  ALA253     -0.2867
    151  CB        32.1090   14.9570   10.6280 C.3   253  ALA253      0.0290
    152  N         34.0410   24.7570    4.8730 N.3   257  TYR257     -0.1241
    153  CA        35.1450   25.5560    5.3940 C.3   257  TYR257      0.1605
    154  C         34.9480   27.0770    5.2850 C.2   257  TYR257      0.2264
    155  O         34.3260   27.5630    4.3480 O.2   257  TYR257     -0.2867
    156  CB        36.4100   25.0970    4.6580 C.3   257  TYR257      0.0534
    157  CG        37.7260   25.5510    5.2430 C.ar  257  TYR257     -0.0201
    158  CD1       37.9700   25.4710    6.6100 C.ar  257  TYR257     -0.0009
    159  CD2       38.7470   26.0140    4.4130 C.ar  257  TYR257     -0.0009
    160  CE1       39.2140   25.8430    7.1420 C.ar  257  TYR257      0.0417
    161  CE2       39.9750   26.3830    4.9300 C.ar  257  TYR257      0.0417
    162  CZ        40.2050   26.2990    6.2860 C.ar  257  TYR257      0.1957
    163  OH        41.4120   26.7030    6.7890 O.3   257  TYR257     -0.2866
    164  N         30.5170   19.7950   11.8680 N.3   286  TRP286     -0.1227
    165  CA        31.9680   19.9210   11.9690 C.3   286  TRP286      0.1737
    166  C         32.1920   21.3920   11.6250 C.2   286  TRP286      0.2595
    167  O         31.9360   21.7770   10.4870 O.2   286  TRP286     -0.2718
    168  CB        32.6550   19.0610   10.8980 C.3   286  TRP286      0.0564
    169  CG        34.1680   19.0690   11.0070 C.ar  286  TRP286      0.0003
    170  CD1       35.0520   19.8580   10.3180 C.ar  286  TRP286      0.0946
    171  CD2       34.9570   18.3420   11.9740 C.ar  286  TRP286      0.0152
    172  NE1       36.3300   19.6760   10.8020 N.ar  286  TRP286     -0.2442
    173  CE2       36.2940   18.7510   11.8190 C.ar  286  TRP286      0.0810
    174  CE3       34.6490   17.4040   12.9610 C.ar  286  TRP286      0.0012
    175  CZ2       37.3340   18.2500   12.6160 C.ar  286  TRP286      0.0191
    176  CZ3       35.6880   16.9120   13.7670 C.ar  286  TRP286      0.0001
    177  CH2       37.0040   17.3330   13.5840 C.ar  286  TRP286      0.0015
    178  N         32.5800   22.2290   12.5850 N.am  287  GLU287     -0.1979
    179  CA        32.7860   21.8680   13.9810 C.3   287  GLU287      0.1602
    180  C         32.4660   23.1060   14.7810 C.2   287  GLU287      0.2287
    181  O         32.1590   24.1500   14.2010 O.2   287  GLU287     -0.2864
    182  CB        34.2380   21.4030   14.2280 C.3   287  GLU287      0.0415
    183  CG        35.2360   21.8950   13.2160 C.3   287  GLU287      0.1163
    184  CD        35.6670   23.3210   13.5010 C.2   287  GLU287      0.3649
    185  OE1       36.2790   23.9440   12.6270 O.co2 287  GLU287     -0.2457
    186  OE2       35.4110   23.7980   14.6200 O.co2 287  GLU287     -0.2457
    187  N         36.5370   26.2220   15.3060 N.3   290  SER290     -0.1202
    188  CA        37.7800   26.3820   14.5480 C.3   290  SER290      0.2020
    189  C         37.5250   26.9040   13.1070 C.2   290  SER290      0.2619
    190  O         36.6690   27.7910   12.9060 O.2   290  SER290     -0.2717
    191  CB        38.5530   25.0440   14.4950 C.3   290  SER290      0.2103
    192  OG        39.9250   25.2670   14.2040 O.3   290  SER290     -0.2182
    193  N         38.2550   26.3520   12.1310 N.am  291  GLY291     -0.1942
    194  CA        38.1200   26.7330   10.7250 C.3   291  GLY291      0.2014
    195  C         36.7410   26.5850   10.0650 C.2   291  GLY291      0.2638
    196  O         36.4500   27.2730    9.0560 O.2   291  GLY291     -0.2714
    197  N         35.9040   25.6820   10.5960 N.am  292  PHE292     -0.1973
    198  CA        34.5360   25.4810   10.1000 C.3   292  PHE292      0.1639
    199  C         33.6010   26.0200   11.1800 C.2   292  PHE292      0.2290
    200  O         32.4090   25.8790   11.0860 O.2   292  PHE292     -0.2864
    201  CB        34.1730   23.9870    9.9190 C.3   292  PHE292      0.0560
    202  CG        34.9000   23.2980    8.8110 C.ar  292  PHE292     -0.0200
    203  CD1       34.1900   22.7300    7.7470 C.ar  292  PHE292     -0.0042
    204  CD2       36.2760   23.1150    8.8650 C.ar  292  PHE292     -0.0042
    205  CE1       34.8330   21.9980    6.7750 C.ar  292  PHE292     -0.0003
    206  CE2       36.9270   22.3730    7.8860 C.ar  292  PHE292     -0.0003
    207  CZ        36.1990   21.8130    6.8420 C.ar  292  PHE292     -0.0000
@<TRIPOS>BOND
     1   117   116    2
     2   116   115    1
     3   105   104    2
     4   114   115    1
     5   118   115    1
     6   118   119    1
     7   104   103    1
     8   119   120   ar
     9   119   121   ar
    10   120   122   ar
    11   103   106    1
    12   103   102    1
    13   106   107    1
    14   127   126    2
    15   135   136    2
    16   135   134    1
    17   121   123   ar
    18   125   124    1
    19   125   126    1
    20   125   128    1
    21   122   123   ar
    22   126   133   am
    23   155   154    2
    24   159   161   ar
    25   159   157   ar
    26   133   134    1
    27   129   128    1
    28   129   130    1
    29   107   109   ar
    30   107   108   ar
    31   134   137    1
    32   156   157    1
    33   156   153    1
    34    95    94    2
    35   152   153    1
    36   161   162   ar
    37   130   132   ar
    38   130   131   ar
    39   109   111   ar
    40   157   158   ar
    41   154   153    1
    42   108   110   ar
    43   139   141   ar
    44   139   138   ar
    45    94    93    1
    46   141   142   ar
    47   137   138    1
    48   138   140   ar
    49   142   140   ar
    50   142   144   ar
    51   140   143   ar
    52   162   163    1
    53   162   160   ar
    54   144   146   ar
    55   143   145   ar
    56   111   112   ar
    57   158   160   ar
    58   146   145   ar
    59   110   112   ar
    60   205   207   ar
    61   205   203   ar
    62   207   206   ar
    63    92    93    1
    64    93    96    1
    65    90    89   ar
    66   112   113    1
    67    96    97    1
    68   203   202   ar
    69    89    91   ar
    70    89    88    1
    71    86    85    2
    72   206   204   ar
    73    87    88    1
    74    87    84    1
    75    85    84    1
    76   150   149    2
    77    84    83    1
    78    97    98   ar
    79    97    99   ar
    80   202   204   ar
    81   202   201    1
    82   196   195    2
    83    98   100   ar
    84   149   148    1
    85    99   101   ar
    86   201   198    1
    87    83    77   am
    88   195   197   am
    89   195   194    1
    90   198   197    1
    91   198   199    1
    92   170   172   ar
    93   170   169   ar
    94   100   101   ar
    95   167   166    2
    96   151   148    1
    97   148   147    1
    98   194   193    1
    99   172   173   ar
   100    78    77    2
   101   168   169    1
   102   168   165    1
   103   169   171   ar
   104    77    76    1
   105   200   199    2
   106    82    80   am
   107    74    72   ar
   108    74    73   ar
   109   166   165    1
   110   166   178   am
   111    72    70   ar
   112   173   171   ar
   113   173   175   ar
   114   164   165    1
   115    81    80    2
   116   171   174   ar
   117    80    79    1
   118   193   189   am
   119    76    79    1
   120    76    75    1
   121   178   179    1
   122   175   177   ar
   123   185   184   ar
   124    73    71   ar
   125    70    71   ar
   126    70    69    1
   127   190   189    2
   128   174   176   ar
   129   189   188    1
   130    39    37   ar
   131    39    38   ar
   132   183   184    1
   133   183   182    1
   134    64    63   ar
   135    64    62   ar
   136     8     6   am
   137    37    35   ar
   138    66    69    1
   139    66    67    1
   140    66    65    1
   141   184   186   ar
   142     7     6    2
   143   177   176   ar
   144    38    36   ar
   145    63    61   ar
   146    67    68    2
   147    65    57   am
   148    54    52    1
   149   179   182    1
   150   179   180    1
   151    62    60   ar
   152    35    34   ar
   153    35    33   ar
   154     6     5    1
   155   181   180    2
   156   192   191    1
   157    53    52    1
   158    36    33   ar
   159    34    32   ar
   160    33    31   ar
   161   191   188    1
   162   188   187    1
   163    52    51    2
   164    61    60   ar
   165    60    59    1
   166    32    31   ar
   167    31    30    1
   168    57    56    1
   169    57    58    2
   170    16    15   ar
   171    51    50    1
   172    56    59    1
   173    56    55    1
   174     5     2    1
   175    30    27    1
   176    14    15    1
   177    14    13    1
   178    29    28    2
   179    50    49    1
   180    15    17   ar
   181     1     2    1
   182    27    28    1
   183    27    26    1
   184     2     3    1
   185    12    11    2
   186    28    40   am
   187    21    20    2
   188    13    10    1
   189    11    10    1
   190    49    48    1
   191    26    20   am
   192    20    19    1
   193    40    41    1
   194     3     4    2
   195    10     9    1
   196    48    45    1
   197    41    42    1
   198    22    19    1
   199    22    23    1
   200    19    18    1
   201    42    43    2
   202    25    23   ar
   203    45    46    1
   204    45    44    1
   205    47    46    2
   206    23    24   ar
