@<TRIPOS>MOLECULE
tmp/3b05A00.pdb
 198 187 0 0 0
SMALL
GASTEIGER

@<TRIPOS>ATOM
      1  N         56.5440   13.6390    6.8910 N.3     6  LYS6       -0.1245
      2  CA        57.9140   13.9770    7.1790 C.3     6  LYS6        0.1561
      3  C         58.4950   14.7670    6.0190 C.2     6  LYS6        0.2260
      4  O         59.0650   15.8570    6.2670 O.2     6  LYS6       -0.2867
      5  CB        58.7280   12.7240    7.4610 C.3     6  LYS6        0.0271
      6  CG        59.1410   12.4940    8.9170 C.3     6  LYS6        0.0035
      7  CD        58.0080   12.0900    9.9100 C.3     6  LYS6        0.0206
      8  CE        57.1270   13.2630   10.3850 C.3     6  LYS6        0.1093
      9  NZ        56.9720   13.2910   11.8810 N.3     6  LYS6       -0.1314
     10  N         56.7180   18.2690    5.8130 N.3     9  HIS9       -0.1226
     11  CA        57.2330   19.1460    6.8670 C.3     9  HIS9        0.1752
     12  C         58.5260   19.8910    6.4570 C.2     9  HIS9        0.2595
     13  O         58.6280   21.1160    6.6120 O.2     9  HIS9       -0.2718
     14  CB        57.5010   18.3420    8.1280 C.3     9  HIS9        0.0759
     15  CG        56.2850   18.0830    8.9230 C.ar    9  HIS9        0.0818
     16  ND1       56.2660   17.1990    9.9850 N.ar    9  HIS9       -0.2268
     17  CD2       55.0340   18.5920    8.8260 C.ar    9  HIS9        0.1154
     18  CE1       55.0520   17.1910   10.5200 C.ar    9  HIS9        0.1986
     19  NE2       54.2890   18.0300    9.8420 N.ar    9  HIS9       -0.2212
     20  N         59.4990   19.1370    5.9680 N.am   10  VAL10      -0.1980
     21  CA        60.7500   19.7190    5.5120 C.3    10  VAL10       0.1595
     22  C         60.5180   20.7270    4.3900 C.2    10  VAL10       0.2287
     23  O         60.9890   21.8900    4.4700 O.2    10  VAL10      -0.2864
     24  CB        61.8400   18.6020    5.1350 C.3    10  VAL10       0.0276
     25  CG1       62.9610   19.1750    4.2670 C.3    10  VAL10       0.0022
     26  CG2       62.4360   18.0440    6.3770 C.3    10  VAL10       0.0022
     27  N         58.7110   23.8790    5.6350 N.3    13  ALA13      -0.1245
     28  CA        59.5900   24.6340    6.5690 C.3    13  ALA13       0.1562
     29  C         60.6600   25.3190    5.7710 C.2    13  ALA13       0.2260
     30  O         60.9450   26.5140    5.9800 O.2    13  ALA13      -0.2867
     31  CB        60.1980   23.7450    7.5770 C.3    13  ALA13       0.0290
     32  N         68.5550   21.4260   17.2330 N.3    63  THR63      -0.1203
     33  CA        67.4770   20.6410   17.7880 C.3    63  THR63       0.1994
     34  C         66.8670   19.7350   16.6780 C.2    63  THR63       0.2618
     35  O         67.1400   19.9190   15.4830 O.2    63  THR63      -0.2717
     36  CB        66.4290   21.4750   18.5040 C.3    63  THR63       0.1784
     37  OG1       65.6130   22.1480   17.5550 O.3    63  THR63      -0.2211
     38  CG2       67.0650   22.5180   19.5110 C.3    63  THR63       0.0376
     39  N         66.0660   18.7520   17.1000 N.am   64  GLY64      -0.1942
     40  CA        65.6040   17.7140   16.2650 C.3    64  GLY64       0.2014
     41  C         64.7310   18.2050   15.1410 C.2    64  GLY64       0.2639
     42  O         63.9460   19.1320   15.3450 O.2    64  GLY64      -0.2714
     43  N         64.8670   17.5890   13.9510 N.am   65  MET65      -0.1963
     44  CA        64.0400   17.9390   12.7750 C.3    65  MET65       0.1736
     45  C         63.4740   16.7560   11.9660 C.2    65  MET65       0.2617
     46  O         62.2310   16.5950   11.8380 O.2    65  MET65      -0.2715
     47  CB        64.8210   18.8580   11.8300 C.3    65  MET65       0.0427
     48  CG        65.1040   20.1930   12.4150 C.3    65  MET65       0.0599
     49  SD        65.8350   21.3690   11.3030 S.3    65  MET65      -0.1393
     50  CE        67.6220   21.0080   11.4350 C.3    65  MET65       0.0692
     51  N         64.3630   15.9250   11.4300 N.am   66  THR66      -0.1951
     52  CA        63.9510   15.0440   10.3470 C.3    66  THR66       0.1897
     53  C         64.5860   13.6480   10.4080 C.2    66  THR66       0.2313
     54  O         65.3160   13.3110   11.3830 O.2    66  THR66      -0.2863
     55  CB        64.1700   15.7250    8.9920 C.3    66  THR66       0.1794
     56  OG1       63.3410   15.1090    8.0100 O.3    66  THR66      -0.2208
     57  CG2       65.6430   15.6600    8.5370 C.3    66  THR66       0.0378
     58  N         65.1730   14.3640   14.3260 N.3    93  GLY93      -0.1210
     59  CA        63.7260   14.4110   14.3130 C.3    93  GLY93       0.1956
     60  C         63.0320   13.1790   14.9320 C.2    93  GLY93       0.2612
     61  O         63.6870   12.1910   15.2690 O.2    93  GLY93      -0.2717
     62  N         61.7040   13.2670   15.0980 N.am   94  SER94      -0.1952
     63  CA        60.9730   12.1770   15.6840 C.3    94  SER94       0.1924
     64  C         61.2920   10.8440   15.0190 C.2    94  SER94       0.2314
     65  O         61.2270   10.6860   13.7830 O.2    94  SER94      -0.2863
     66  CB        59.4630   12.4090   15.6460 C.3    94  SER94       0.2116
     67  OG        58.8180   11.2750   16.2110 O.3    94  SER94      -0.2180
     68  N         64.6350   11.3510   19.7210 N.3   123  ASN123     -0.1240
     69  CA        63.4080   12.1160   19.7190 C.3   123  ASN123      0.1653
     70  C         62.2060   11.1970   19.6290 C.2   123  ASN123      0.2266
     71  O         62.1740   10.3110   18.7810 O.2   123  ASN123     -0.2867
     72  CB        63.3990   13.1170   18.5400 C.3   123  ASN123      0.1155
     73  CG        62.3690   14.2420   18.7030 C.2   123  ASN123      0.2627
     74  OD1       61.1560   14.0370   18.4850 O.2   123  ASN123     -0.2716
     75  ND2       62.8510   15.4620   19.0210 N.am  123  ASN123     -0.0877
     76  N         59.0850   15.3530   22.7160 N.3   153  HIS153     -0.1241
     77  CA        58.4520   16.5980   22.3220 C.3   153  HIS153      0.1621
     78  C         56.9860   16.7920   22.7440 C.2   153  HIS153      0.2264
     79  O         56.1550   15.8400   22.7550 O.2   153  HIS153     -0.2867
     80  CB        58.6370   16.8930   20.8000 C.3   153  HIS153      0.0745
     81  CG        57.8460   16.0110   19.8750 C.ar  153  HIS153      0.0817
     82  ND1       58.4400   15.0960   19.0250 N.ar  153  HIS153     -0.2268
     83  CD2       56.5170   15.9460   19.6250 C.ar  153  HIS153      0.1154
     84  CE1       57.5030   14.4910   18.3110 C.ar  153  HIS153      0.1986
     85  NE2       56.3310   14.9890   18.6610 N.ar  153  HIS153     -0.2212
     86  N         60.9380   18.9700   25.3630 N.3   191  LYS191     -0.1231
     87  CA        61.0590   20.1420   24.4990 C.3   191  LYS191      0.1693
     88  C         59.7080   20.4530   23.9080 C.2   191  LYS191      0.2592
     89  O         58.8750   19.5460   23.7270 O.2   191  LYS191     -0.2718
     90  CB        62.0710   19.8920   23.4020 C.3   191  LYS191      0.0285
     91  CG        61.6930   18.8500   22.3480 C.3   191  LYS191      0.0035
     92  CD        62.8590   18.6760   21.3190 C.3   191  LYS191      0.0206
     93  CE        63.0100   19.8500   20.4040 C.3   191  LYS191      0.1093
     94  NZ        61.7420   20.1820   19.6220 N.3   191  LYS191     -0.1314
     95  N         59.4640   21.7210   23.5910 N.am  192  GLU192     -0.1966
     96  CA        58.2040   22.0590   22.8940 C.3   192  GLU192      0.1733
     97  C         58.5000   22.0900   21.4000 C.2   192  GLU192      0.2617
     98  O         59.5720   21.6300   20.9450 O.2   192  GLU192     -0.2715
     99  CB        57.6630   23.3930   23.3410 C.3   192  GLU192      0.0429
    100  CG        56.2340   23.3460   23.8640 C.3   192  GLU192      0.1163
    101  CD        55.2040   23.4160   22.7850 C.2   192  GLU192      0.3649
    102  OE1       55.5120   23.7960   21.6420 O.co2 192  GLU192     -0.2457
    103  OE2       54.0600   23.0530   23.0630 O.co2 192  GLU192     -0.2457
    104  N         57.5960   22.6940   20.6360 N.am  193  SER193     -0.1936
    105  CA        57.7630   22.6690   19.2080 C.3   193  SER193      0.2055
    106  C         57.1830   23.8910   18.6060 C.2   193  SER193      0.2643
    107  O         56.3490   23.8020   17.7190 O.2   193  SER193     -0.2714
    108  CB        57.1310   21.4060   18.6550 C.3   193  SER193      0.2130
    109  OG        55.7640   21.4900   18.8390 O.3   193  SER193     -0.2179
    110  N         57.6080   25.0420   19.0990 N.am  194  GLY194     -0.1954
    111  CA        57.2460   26.3470   18.5040 C.3   194  GLY194      0.1869
    112  C         56.2670   27.1390   19.3270 C.2   194  GLY194      0.2309
    113  O         55.9610   28.2860   18.9650 O.2   194  GLY194     -0.2863
    114  N         61.6010   26.0420   22.9930 N.3   216  SER216     -0.1217
    115  CA        60.9580   26.0360   21.6500 C.3   216  SER216      0.1889
    116  C         59.7440   26.9540   21.6530 C.2   216  SER216      0.2288
    117  O         58.5620   26.5210   21.4870 O.2   216  SER216     -0.2866
    118  CB        60.5450   24.6070   21.2270 C.3   216  SER216      0.2089
    119  OG        60.1320   24.6800   19.8810 O.3   216  SER216     -0.2183
    120  N         60.0400   28.9270   13.9820 N.3   221  THR221     -0.1218
    121  CA        59.2330   28.1250   13.1300 C.3   221  THR221      0.1862
    122  C         57.8660   28.0810   13.7520 C.2   221  THR221      0.2287
    123  O         57.6920   27.8740   14.9960 O.2   221  THR221     -0.2866
    124  CB        59.8490   26.7550   12.9410 C.3   221  THR221      0.1770
    125  OG1       61.1960   26.9090   12.4380 O.3   221  THR221     -0.2211
    126  CG2       59.0110   25.9180   11.9620 C.3   221  THR221      0.0375
    127  N         54.6270   26.0780   13.7380 N.3   223  TRP223     -0.1298
    128  CA        54.1790   24.7400   13.4330 C.3   223  TRP223      0.1291
    129  C         52.6830   24.7240   13.2310 C.3   223  TRP223      0.2013
    130  O         52.1470   23.8520   12.4500 O.3   223  TRP223     -0.2188
    131  CB        54.6370   23.7490   14.5220 C.3   223  TRP223      0.0497
    132  CG        55.9880   23.3330   14.1670 C.ar  223  TRP223     -0.0001
    133  CD1       57.1780   23.8610   14.6140 C.ar  223  TRP223      0.0946
    134  CD2       56.3230   22.3530   13.1810 C.ar  223  TRP223      0.0152
    135  NE1       58.2410   23.2380   13.9690 N.ar  223  TRP223     -0.2442
    136  CE2       57.7320   22.3110   13.0830 C.ar  223  TRP223      0.0810
    137  CE3       55.5600   21.5240   12.3350 C.ar  223  TRP223      0.0012
    138  CZ2       58.3860   21.4560   12.1790 C.ar  223  TRP223      0.0191
    139  CZ3       56.2270   20.6650   11.4660 C.ar  223  TRP223      0.0001
    140  CH2       57.6080   20.6330   11.3950 C.ar  223  TRP223      0.0015
    141  N         65.2760   28.0480   22.8600 N.3   271  SER271     -0.1202
    142  CA        65.1390   27.9190   21.3980 C.3   271  SER271      0.2020
    143  C         63.7630   28.3380   20.9440 C.2   271  SER271      0.2619
    144  O         62.8210   28.5480   21.7570 O.2   271  SER271     -0.2717
    145  CB        65.4270   26.4900   20.9250 C.3   271  SER271      0.2103
    146  OG        64.3180   25.6810   21.2420 O.3   271  SER271     -0.2182
    147  N         63.6670   28.4890   19.6120 N.am  272  GLY272     -0.1942
    148  CA        62.4500   28.9300   18.9410 C.3   272  GLY272      0.2014
    149  C         62.8100   30.3100   18.4570 C.2   272  GLY272      0.2639
    150  O         62.7020   31.2770   19.2370 O.2   272  GLY272     -0.2714
    151  N         63.2750   30.4150   17.2010 N.am  273  GLY273     -0.1954
    152  CA        63.4870   31.7050   16.5970 C.3   273  GLY273      0.1869
    153  C         64.8910   32.2110   16.8650 C.2   273  GLY273      0.2309
    154  O         65.1360   33.3990   16.6960 O.2   273  GLY273     -0.2863
    155  N         68.1880   33.0190   15.4910 N.3   275  ARG275     -0.1245
    156  CA        68.6080   33.1530   14.0690 C.3   275  ARG275      0.1563
    157  C         70.0140   33.7270   13.8750 C.2   275  ARG275      0.2260
    158  O         70.4530   33.9330   12.7450 O.2   275  ARG275     -0.2867
    159  CB        67.5980   33.9730   13.2470 C.3   275  ARG275      0.0307
    160  CG        66.2240   33.3870   13.2600 C.3   275  ARG275      0.0489
    161  CD        66.2110   32.1000   12.3550 C.3   275  ARG275      0.2205
    162  NE        64.9320   31.3850   12.3890 N.pl3 275  ARG275     -0.0865
    163  CZ        64.6010   30.3940   13.2310 C.cat 275  ARG275      0.5346
    164  NH1       63.3970   29.8250   13.1270 N.pl3 275  ARG275      0.1354
    165  NH2       65.4400   29.9650   14.1900 N.pl3 275  ARG275      0.1354
    166  N         69.3380   26.7370   21.2540 N.3   292  GLY292     -0.1210
    167  CA        69.0550   25.7740   20.1810 C.3   292  GLY292      0.1956
    168  C         68.5340   26.3760   18.8610 C.2   292  GLY292      0.2612
    169  O         67.8780   27.4450   18.8230 O.2   292  GLY292     -0.2717
    170  N         68.8120   25.6960   17.7530 N.am  293  MET293     -0.1965
    171  CA        68.3670   26.2000   16.4170 C.3   293  MET293      0.1736
    172  C         67.9470   25.0210   15.5970 C.2   293  MET293      0.2616
    173  O         68.5880   23.9360   15.6810 O.2   293  MET293     -0.2715
    174  CB        69.5060   26.8600   15.6400 C.3   293  MET293      0.0427
    175  CG        70.0140   28.1500   16.1990 C.3   293  MET293      0.0599
    176  SD        71.3920   28.7890   15.2070 S.3   293  MET293     -0.1393
    177  CE        72.3980   27.3730   15.4050 C.3   293  MET293      0.0692
    178  N         66.9260   25.2110   14.7560 N.am  294  ALA294     -0.1963
    179  CA        66.5740   24.1250   13.8380 C.3   294  ALA294      0.1728
    180  C         66.4640   24.6250   12.3980 C.2   294  ALA294      0.2616
    181  O         67.3550   24.3570   11.5870 O.2   294  ALA294     -0.2715
    182  CB        65.2710   23.4820   14.3130 C.3   294  ALA294      0.0334
    183  N         65.3940   25.3930   12.1020 N.am  295  LEU295     -0.1977
    184  CA        65.0880   25.8800   10.7390 C.3   295  LEU295      0.1596
    185  C         66.2750   26.4640    9.9610 C.2   295  LEU295      0.2287
    186  O         66.4890   26.0460    8.8420 O.2   295  LEU295     -0.2864
    187  CB        63.9900   26.9430   10.7620 C.3   295  LEU295      0.0297
    188  CG        62.9310   26.9810    9.6500 C.3   295  LEU295      0.0022
    189  CD1       62.4800   28.4180    9.2930 C.3   295  LEU295      0.0001
    190  CD2       63.1860   26.0330    8.4560 C.3   295  LEU295      0.0001
    191  N         68.4410   23.8490    8.8440 N.3   298  LEU298     -0.1245
    192  CA        67.8550   23.0820    7.7790 C.3   298  LEU298      0.1561
    193  C         68.0670   23.7480    6.4360 C.2   298  LEU298      0.2260
    194  O         68.4190   23.0800    5.4710 O.2   298  LEU298     -0.2867
    195  CB        66.3520   23.0260    7.9420 C.3   298  LEU298      0.0270
    196  CG        65.4990   21.8760    7.4140 C.3   298  LEU298      0.0019
    197  CD1       64.1620   22.4060    6.9220 C.3   298  LEU298      0.0001
    198  CD2       66.1400   20.9980    6.4000 C.3   298  LEU298      0.0001
@<TRIPOS>BOND
     1    25    24    1
     2    22    23    2
     3    22    21    1
     4    24    21    1
     5    24    26    1
     6   194   193    2
     7    21    20    1
     8    27    28    1
     9    29    30    2
    10    29    28    1
    11    10    11    1
    12    20    12   am
    13     3     4    2
    14     3     2    1
    15   198   196    1
    16   193   192    1
    17    12    13    2
    18    12    11    1
    19    28    31    1
    20    11    14    1
    21     1     2    1
    22   197   196    1
    23     2     5    1
    24   196   195    1
    25     5     6    1
    26   192   195    1
    27   192   191    1
    28    56    55    1
    29    14    15    1
    30   190   188    1
    31    57    55    1
    32    17    15   ar
    33    17    19   ar
    34   186   185    2
    35     6     7    1
    36    15    16   ar
    37    55    52    1
    38   189   188    1
    39   188   187    1
    40    19    18   ar
    41     7     8    1
    42   185   184    1
    43    16    18   ar
    44    52    53    1
    45    52    51    1
    46     8     9    1
    47    53    54    2
    48   184   187    1
    49   184   183    1
    50    49    50    1
    51    49    48    1
    52   140   139   ar
    53   140   138   ar
    54    51    45   am
    55   139   137   ar
    56   181   180    2
    57    47    48    1
    58    47    44    1
    59    46    45    2
    60   126   124    1
    61    45    44    1
    62   183   180   am
    63   138   136   ar
    64   137   134   ar
    65   161   162    1
    66   161   160    1
    67   162   163    2
    68   180   179    1
    69   125   124    1
    70   130   129    1
    71   158   157    2
    72    44    43    1
    73   124   121    1
    74   136   134   ar
    75   136   135   ar
    76   164   163    1
    77   121   122    1
    78   121   120    1
    79   134   132   ar
    80   163   165    1
    81   129   128    1
    82   159   160    1
    83   159   156    1
    84   128   127    1
    85   128   131    1
    86   122   123    2
    87    65    64    2
    88   179   182    1
    89   179   178    1
    90   157   156    1
    91    43    41   am
    92   135   133   ar
    93   156   155    1
    94   132   131    1
    95   132   133   ar
    96    59    58    1
    97    59    60    1
    98   178   172   am
    99    60    62   am
   100    60    61    2
   101    64    63    1
   102    62    63    1
   103    41    42    2
   104    41    40    1
   105   176   177    1
   106   176   175    1
   107    35    34    2
   108   172   173    2
   109   172   171    1
   110   174   175    1
   111   174   171    1
   112    66    63    1
   113    66    67    1
   114    40    39    1
   115   171   170    1
   116   152   153    1
   117   152   151    1
   118    34    39   am
   119    34    33    1
   120   154   153    2
   121   151   149   am
   122    32    33    1
   123    37    36    1
   124   107   106    2
   125   170   168   am
   126    33    36    1
   127    84    85   ar
   128    84    82   ar
   129   149   148    1
   130   149   150    2
   131    74    73    2
   132   111   110    1
   133   111   112    1
   134    36    38    1
   135    72    73    1
   136    72    69    1
   137   106   110   am
   138   106   105    1
   139   108   109    1
   140   108   105    1
   141    85    83   ar
   142    73    75   am
   143    71    70    2
   144   169   168    2
   145   168   167    1
   146   148   147    1
   147   113   112    2
   148    82    81   ar
   149   105   104    1
   150   147   143   am
   151    94    93    1
   152    83    81   ar
   153    70    69    1
   154    69    68    1
   155    81    80    1
   156   119   118    1
   157   167   166    1
   158    93    92    1
   159   104    97   am
   160    80    77    1
   161   145   146    1
   162   145   142    1
   163   143   142    1
   164   143   144    2
   165    98    97    2
   166   118   115    1
   167    92    91    1
   168   142   141    1
   169    97    96    1
   170   117   116    2
   171   102   101   ar
   172   115   116    1
   173   115   114    1
   174    77    76    1
   175    77    78    1
   176    91    90    1
   177    78    79    2
   178   101   103   ar
   179   101   100    1
   180    96    99    1
   181    96    95    1
   182    99   100    1
   183    90    87    1
   184    95    88   am
   185    89    88    2
   186    88    87    1
   187    87    86    1
