@<TRIPOS>MOLECULE
tmp/3b05A01.pdb
 165 153 0 0 0
SMALL
GASTEIGER

@<TRIPOS>ATOM
      1  N         52.8820    8.5260    6.9810 N.3     2  ILE2       -0.1245
      2  CA        53.7500    9.1990    7.9660 C.3     2  ILE2        0.1561
      3  C         55.0260    9.7030    7.2790 C.2     2  ILE2        0.2260
      4  O         55.4920   10.8090    7.6080 O.2     2  ILE2       -0.2867
      5  CB        54.1340    8.3300    9.2010 C.3     2  ILE2        0.0252
      6  CG1       54.9680    9.1600   10.1800 C.3     2  ILE2        0.0019
      7  CG2       54.8840    7.0620    8.7990 C.3     2  ILE2        0.0019
      8  CD1       55.0310    8.5660   11.5830 C.3     2  ILE2        0.0001
      9  N         54.3290   12.9260    5.3790 N.3     5  ARG5       -0.1231
     10  CA        54.2100   14.0240    6.2860 C.3     5  ARG5        0.1694
     11  C         55.6170   14.5400    6.6120 C.2     5  ARG5        0.2591
     12  O         55.8400   15.7210    6.5910 O.2     5  ARG5       -0.2718
     13  CB        53.4700   13.6180    7.5530 C.3     5  ARG5        0.0321
     14  CG        53.5280   14.7330    8.5950 C.3     5  ARG5        0.0489
     15  CD        52.5050   14.6210    9.6820 C.3     5  ARG5        0.2205
     16  NE        52.9850   13.7890   10.7780 N.pl3   5  ARG5       -0.0865
     17  CZ        52.6890   12.5070   10.9490 C.cat   5  ARG5        0.5346
     18  NH1       51.8880   11.8750   10.1080 N.pl3   5  ARG5        0.1354
     19  NH2       53.1580   11.8650   11.9990 N.pl3   5  ARG5        0.1354
     20  N         56.5440   13.6390    6.8910 N.am    6  LYS6       -0.1980
     21  CA        57.9140   13.9770    7.1790 C.3     6  LYS6        0.1596
     22  C         58.4950   14.7670    6.0190 C.2     6  LYS6        0.2287
     23  O         59.0650   15.8570    6.2670 O.2     6  LYS6       -0.2864
     24  CB        58.7280   12.7240    7.4610 C.3     6  LYS6        0.0298
     25  CG        59.1410   12.4940    8.9170 C.3     6  LYS6        0.0038
     26  CD        58.0080   12.0900    9.9100 C.3     6  LYS6        0.0206
     27  CE        57.1270   13.2630   10.3850 C.3     6  LYS6        0.1093
     28  NZ        56.9720   13.2910   11.8810 N.3     6  LYS6       -0.1314
     29  N         56.7180   18.2690    5.8130 N.3     9  HIS9       -0.1241
     30  CA        57.2330   19.1460    6.8670 C.3     9  HIS9        0.1621
     31  C         58.5260   19.8910    6.4570 C.2     9  HIS9        0.2264
     32  O         58.6280   21.1160    6.6120 O.2     9  HIS9       -0.2867
     33  CB        57.5010   18.3420    8.1280 C.3     9  HIS9        0.0745
     34  CG        56.2850   18.0830    8.9230 C.ar    9  HIS9        0.0817
     35  ND1       56.2660   17.1990    9.9850 N.ar    9  HIS9       -0.2268
     36  CD2       55.0340   18.5920    8.8260 C.ar    9  HIS9        0.1154
     37  CE1       55.0520   17.1910   10.5200 C.ar    9  HIS9        0.1986
     38  NE2       54.2890   18.0300    9.8420 N.ar    9  HIS9       -0.2212
     39  N         64.8670   17.5890   13.9510 N.3    65  MET65      -0.1245
     40  CA        64.0400   17.9390   12.7750 C.3    65  MET65       0.1570
     41  C         63.4740   16.7560   11.9660 C.2    65  MET65       0.2261
     42  O         62.2310   16.5950   11.8380 O.2    65  MET65      -0.2867
     43  CB        64.8210   18.8580   11.8300 C.3    65  MET65       0.0387
     44  CG        65.1040   20.1930   12.4150 C.3    65  MET65       0.0595
     45  SD        65.8350   21.3690   11.3030 S.3    65  MET65      -0.1393
     46  CE        67.6220   21.0080   11.4350 C.3    65  MET65       0.0692
     47  N         61.7040   13.2670   15.0980 N.3    94  SER94      -0.1217
     48  CA        60.9730   12.1770   15.6840 C.3    94  SER94       0.1889
     49  C         61.2920   10.8440   15.0190 C.2    94  SER94       0.2288
     50  O         61.2270   10.6860   13.7830 O.2    94  SER94      -0.2866
     51  CB        59.4630   12.4090   15.6460 C.3    94  SER94       0.2089
     52  OG        58.8180   11.2750   16.2110 O.3    94  SER94      -0.2183
     53  N         59.5260    8.1110   15.5720 N.3    96  ARG96      -0.1231
     54  CA        58.3440    7.3060   15.4580 C.3    96  ARG96       0.1694
     55  C         58.3910    6.6010   14.1040 C.2    96  ARG96       0.2591
     56  O         58.3490    5.3400   14.0310 O.2    96  ARG96      -0.2718
     57  CB        57.0790    8.1630   15.6440 C.3    96  ARG96       0.0321
     58  CG        55.7740    7.5430   15.1030 C.3    96  ARG96       0.0489
     59  CD        54.6420    8.5650   15.1090 C.3    96  ARG96       0.2205
     60  NE        53.3210    7.9980   14.8160 N.pl3  96  ARG96      -0.0865
     61  CZ        52.1530    8.6610   14.7190 C.cat  96  ARG96       0.5346
     62  NH1       52.0570   10.0110   14.8300 N.pl3  96  ARG96       0.1354
     63  NH2       51.0360    7.9550   14.4580 N.pl3  96  ARG96       0.1354
     64  N         58.5720    7.3800   13.0420 N.am   97  VAL97      -0.1980
     65  CA        58.6640    6.8300   11.6630 C.3    97  VAL97       0.1595
     66  C         59.5670    5.5930   11.5170 C.2    97  VAL97       0.2287
     67  O         59.1780    4.6070   10.8850 O.2    97  VAL97      -0.2864
     68  CB        59.0450    7.9470   10.6220 C.3    97  VAL97       0.0276
     69  CG1       60.4870    8.4190   10.7890 C.3    97  VAL97       0.0022
     70  CG2       58.7050    7.5430    9.1950 C.3    97  VAL97       0.0022
     71  N         64.6350   11.3510   19.7210 N.3   123  ASN123     -0.1240
     72  CA        63.4080   12.1160   19.7190 C.3   123  ASN123      0.1653
     73  C         62.2060   11.1970   19.6290 C.2   123  ASN123      0.2266
     74  O         62.1740   10.3110   18.7810 O.2   123  ASN123     -0.2867
     75  CB        63.3990   13.1170   18.5400 C.3   123  ASN123      0.1155
     76  CG        62.3690   14.2420   18.7030 C.2   123  ASN123      0.2627
     77  OD1       61.1560   14.0370   18.4850 O.2   123  ASN123     -0.2716
     78  ND2       62.8510   15.4620   19.0210 N.am  123  ASN123     -0.0877
     79  N         57.6800   11.6130   20.3750 N.3   125  GLY125     -0.1225
     80  CA        56.6000   12.4840   20.7330 C.3   125  GLY125      0.1811
     81  C         55.8040   12.0000   21.9210 C.2   125  GLY125      0.2280
     82  O         55.5400   10.7790   22.0870 O.2   125  GLY125     -0.2866
     83  N         52.7950    9.5180   21.7290 N.3   128  GLN128     -0.1245
     84  CA        53.0170    8.1270   21.4520 C.3   128  GLN128      0.1566
     85  C         53.0340    7.4180   22.7670 C.2   128  GLN128      0.2260
     86  O         52.6740    6.2460   22.8600 O.2   128  GLN128     -0.2867
     87  CB        54.2890    7.9200   20.6100 C.3   128  GLN128      0.0367
     88  CG        53.9980    7.7720   19.1010 C.3   128  GLN128      0.0905
     89  CD        53.0200    8.8280   18.5710 C.2   128  GLN128      0.2608
     90  OE1       53.2990   10.0320   18.6320 O.2   128  GLN128     -0.2717
     91  NE2       51.8960    8.3880   18.0010 N.am  128  GLN128     -0.0878
     92  N         59.0850   15.3530   22.7160 N.3   153  HIS153     -0.1241
     93  CA        58.4520   16.5980   22.3220 C.3   153  HIS153      0.1621
     94  C         56.9860   16.7920   22.7440 C.2   153  HIS153      0.2264
     95  O         56.1550   15.8400   22.7550 O.2   153  HIS153     -0.2867
     96  CB        58.6370   16.8930   20.8000 C.3   153  HIS153      0.0745
     97  CG        57.8460   16.0110   19.8750 C.ar  153  HIS153      0.0817
     98  ND1       58.4400   15.0960   19.0250 N.ar  153  HIS153     -0.2268
     99  CD2       56.5170   15.9460   19.6250 C.ar  153  HIS153      0.1154
    100  CE1       57.5030   14.4910   18.3110 C.ar  153  HIS153      0.1986
    101  NE2       56.3310   14.9890   18.6610 N.ar  153  HIS153     -0.2212
    102  N         53.7510   18.8360   21.5280 N.3   155  ASN155     -0.1240
    103  CA        53.2980   19.4910   20.3060 C.3   155  ASN155      0.1653
    104  C         51.7980   19.4640   20.1700 C.2   155  ASN155      0.2266
    105  O         51.2580   19.2340   19.1000 O.2   155  ASN155     -0.2867
    106  CB        53.9930   18.8880   19.0670 C.3   155  ASN155      0.1155
    107  CG        53.4790   17.4960   18.7020 C.2   155  ASN155      0.2627
    108  OD1       53.5260   17.1020   17.5270 O.2   155  ASN155     -0.2716
    109  ND2       53.0140   16.7570   19.6790 N.am  155  ASN155     -0.0877
    110  N         50.4510   21.8180   17.4290 N.3   158  GLN158     -0.1231
    111  CA        50.6080   21.1440   16.1570 C.3   158  GLN158      0.1698
    112  C         49.5970   20.0070   15.9520 C.2   158  GLN158      0.2592
    113  O         49.0450   19.9010   14.8780 O.2   158  GLN158     -0.2718
    114  CB        51.9980   20.5430   16.0230 C.3   158  GLN158      0.0381
    115  CG        52.2620   19.9250   14.6420 C.3   158  GLN158      0.0905
    116  CD        53.6420   19.2810   14.6190 C.2   158  GLN158      0.2608
    117  OE1       54.3380   19.2580   15.6260 O.2   158  GLN158     -0.2717
    118  NE2       54.0280   18.7520   13.4920 N.am  158  GLN158     -0.0878
    119  N         49.4590   19.0970   16.9140 N.am  159  GLU159     -0.1979
    120  CA        48.5560   17.9660   16.7110 C.3   159  GLU159      0.1602
    121  C         47.1050   18.4780   16.5230 C.2   159  GLU159      0.2287
    122  O         46.3950   17.9620   15.6660 O.2   159  GLU159     -0.2864
    123  CB        48.5940   16.9380   17.8600 C.3   159  GLU159      0.0415
    124  CG        50.0050   16.3370   18.2000 C.3   159  GLU159      0.1163
    125  CD        50.5220   15.3240   17.1730 C.2   159  GLU159      0.3649
    126  OE1       51.6230   14.8170   17.3100 O.co2 159  GLU159     -0.2457
    127  OE2       49.8650   14.9660   16.1990 O.co2 159  GLU159     -0.2457
    128  N         47.0370   19.6510   12.8360 N.3   162  GLN162     -0.1245
    129  CA        47.5990   18.6820   11.9160 C.3   162  GLN162      0.1566
    130  C         46.4160   17.8960   11.3870 C.2   162  GLN162      0.2260
    131  O         45.5630   17.5240   12.1930 O.2   162  GLN162     -0.2867
    132  CB        48.5680   17.7480   12.6440 C.3   162  GLN162      0.0367
    133  CG        49.2390   16.7770   11.7300 C.3   162  GLN162      0.0905
    134  CD        50.2210   15.8790   12.4360 C.2   162  GLN162      0.2608
    135  OE1       51.2720   16.3320   12.9300 O.2   162  GLN162     -0.2717
    136  NE2       49.9150   14.5860   12.4740 N.am  162  GLN162     -0.0878
    137  N         60.9380   18.9700   25.3630 N.3   191  LYS191     -0.1245
    138  CA        61.0590   20.1420   24.4990 C.3   191  LYS191      0.1561
    139  C         59.7080   20.4530   23.9080 C.2   191  LYS191      0.2260
    140  O         58.8750   19.5460   23.7270 O.2   191  LYS191     -0.2867
    141  CB        62.0710   19.8920   23.4020 C.3   191  LYS191      0.0271
    142  CG        61.6930   18.8500   22.3480 C.3   191  LYS191      0.0035
    143  CD        62.8590   18.6760   21.3190 C.3   191  LYS191      0.0206
    144  CE        63.0100   19.8500   20.4040 C.3   191  LYS191      0.1093
    145  NZ        61.7420   20.1820   19.6220 N.3   191  LYS191     -0.1314
    146  N         57.5960   22.6940   20.6360 N.3   193  SER193     -0.1217
    147  CA        57.7630   22.6690   19.2080 C.3   193  SER193      0.1889
    148  C         57.1830   23.8910   18.6060 C.2   193  SER193      0.2288
    149  O         56.3490   23.8020   17.7190 O.2   193  SER193     -0.2866
    150  CB        57.1310   21.4060   18.6550 C.3   193  SER193      0.2089
    151  OG        55.7640   21.4900   18.8390 O.3   193  SER193     -0.2183
    152  N         54.6270   26.0780   13.7380 N.3   223  TRP223     -0.1298
    153  CA        54.1790   24.7400   13.4330 C.3   223  TRP223      0.1291
    154  C         52.6830   24.7240   13.2310 C.3   223  TRP223      0.2013
    155  O         52.1470   23.8520   12.4500 O.3   223  TRP223     -0.2188
    156  CB        54.6370   23.7490   14.5220 C.3   223  TRP223      0.0497
    157  CG        55.9880   23.3330   14.1670 C.ar  223  TRP223     -0.0001
    158  CD1       57.1780   23.8610   14.6140 C.ar  223  TRP223      0.0946
    159  CD2       56.3230   22.3530   13.1810 C.ar  223  TRP223      0.0152
    160  NE1       58.2410   23.2380   13.9690 N.ar  223  TRP223     -0.2442
    161  CE2       57.7320   22.3110   13.0830 C.ar  223  TRP223      0.0810
    162  CE3       55.5600   21.5240   12.3350 C.ar  223  TRP223      0.0012
    163  CZ2       58.3860   21.4560   12.1790 C.ar  223  TRP223      0.0191
    164  CZ3       56.2270   20.6650   11.4660 C.ar  223  TRP223      0.0001
    165  CH2       57.6080   20.6330   11.3950 C.ar  223  TRP223      0.0015
@<TRIPOS>BOND
     1     9    10    1
     2    29    30    1
     3    22    23    2
     4    22    21    1
     5    10    11    1
     6    10    13    1
     7    31    32    2
     8    31    30    1
     9    12    11    2
    10    11    20   am
    11    30    33    1
    12    20    21    1
    13     1     2    1
    14    21    24    1
    15     3     4    2
    16     3     2    1
    17    24    25    1
    18    13    14    1
    19     2     5    1
    20    33    34    1
    21    14    15    1
    22     7     5    1
    23    36    34   ar
    24    36    38   ar
    25    25    26    1
    26    34    35   ar
    27    70    68    1
    28     5     6    1
    29    15    16    1
    30    38    37   ar
    31    26    27    1
    32    35    37   ar
    33    18    17    1
    34     6     8    1
    35    27    28    1
    36    68    69    1
    37    68    65    1
    38    16    17    2
    39    67    66    2
    40    17    19    1
    41    45    46    1
    42    45    44    1
    43   130   129    1
    44   130   131    2
    45   165   164   ar
    46   165   163   ar
    47   164   162   ar
    48    66    65    1
    49    65    64    1
    50   133   134    1
    51   133   132    1
    52    43    44    1
    53    43    40    1
    54    42    41    2
    55   129   132    1
    56   129   128    1
    57    41    40    1
    58   163   161   ar
    59   162   159   ar
    60   134   136   am
    61   134   135    2
    62   155   154    1
    63    40    39    1
    64    64    55   am
    65   161   159   ar
    66   161   160   ar
    67   159   157   ar
    68   154   153    1
    69   153   152    1
    70   153   156    1
    71   118   116   am
    72    50    49    2
    73   160   158   ar
    74    56    55    2
    75    55    54    1
    76   157   156    1
    77   157   158   ar
    78    63    61    1
    79   116   115    1
    80   116   117    2
    81   115   114    1
    82    61    60    2
    83    61    62    1
    84    60    59    1
    85   113   112    2
    86    49    48    1
    87    47    48    1
    88    58    59    1
    89    58    57    1
    90    54    53    1
    91    54    57    1
    92    51    48    1
    93    51    52    1
    94   122   121    2
    95   112   111    1
    96   112   119   am
    97   114   111    1
    98   111   110    1
    99   127   125   ar
   100   121   120    1
   101   120   119    1
   102   120   123    1
   103   125   126   ar
   104   125   124    1
   105   108   107    2
   106   149   148    2
   107   123   124    1
   108    91    89   am
   109   100   101   ar
   110   100    98   ar
   111    77    76    2
   112    75    76    1
   113    75    72    1
   114    89    90    2
   115    89    88    1
   116   148   147    1
   117   150   151    1
   118   150   147    1
   119   101    99   ar
   120   107   106    1
   121   107   109   am
   122    76    78   am
   123    74    73    2
   124    98    97   ar
   125   106   103    1
   126   105   104    2
   127    88    87    1
   128   147   146    1
   129   145   144    1
   130    99    97   ar
   131    73    72    1
   132    72    71    1
   133    97    96    1
   134   104   103    1
   135   103   102    1
   136    79    80    1
   137   144   143    1
   138    87    84    1
   139    80    81    1
   140    96    93    1
   141   143   142    1
   142    84    83    1
   143    84    85    1
   144    81    82    2
   145    93    92    1
   146    93    94    1
   147   142   141    1
   148    94    95    2
   149    85    86    2
   150   141   138    1
   151   140   139    2
   152   139   138    1
   153   138   137    1
