@<TRIPOS>MOLECULE
tmp/3b0qA00.pdb
 222 211 0 0 0
SMALL
GASTEIGER

@<TRIPOS>ATOM
      1  N        -22.1950   26.1010  -10.1000 N.3    67  ILE67      -0.1231
      2  CA       -21.6990   24.7360   -9.9900 C.3    67  ILE67       0.1692
      3  C        -21.5750   24.0860  -11.3690 C.2    67  ILE67       0.2592
      4  O        -20.5860   23.4000  -11.6430 O.2    67  ILE67      -0.2718
      5  CB       -22.6080   23.8690   -9.0870 C.3    67  ILE67       0.0266
      6  CG1      -22.4480   24.2930   -7.6250 C.3    67  ILE67       0.0019
      7  CG2      -22.2680   22.3920   -9.2400 C.3    67  ILE67       0.0020
      8  CD1      -23.4300   23.6220   -6.6800 C.3    67  ILE67       0.0001
      9  N        -22.5710   24.2970  -12.2330 N.am   68  PHE68      -0.1976
     10  CA       -22.5570   23.6830  -13.5630 C.3    68  PHE68       0.1639
     11  C        -21.4180   24.2210  -14.4320 C.2    68  PHE68       0.2290
     12  O        -20.7960   23.4720  -15.1790 O.2    68  PHE68      -0.2864
     13  CB       -23.8970   23.8550  -14.2900 C.3    68  PHE68       0.0560
     14  CG       -24.0360   22.9680  -15.5040 C.ar   68  PHE68      -0.0200
     15  CD1      -24.4030   21.6370  -15.3630 C.ar   68  PHE68      -0.0042
     16  CD2      -23.7750   23.4570  -16.7810 C.ar   68  PHE68      -0.0042
     17  CE1      -24.5210   20.8050  -16.4750 C.ar   68  PHE68      -0.0003
     18  CE2      -23.8900   22.6310  -17.8980 C.ar   68  PHE68      -0.0003
     19  CZ       -24.2640   21.3040  -17.7390 C.ar   68  PHE68      -0.0000
     20  N        -18.6980   25.3710  -13.2140 N.3    70  GLY70      -0.1210
     21  CA       -17.5090   24.8280  -12.5710 C.3    70  GLY70       0.1956
     22  C        -17.1260   23.5110  -13.2060 C.2    70  GLY70       0.2612
     23  O        -15.9490   23.2740  -13.4890 O.2    70  GLY70      -0.2717
     24  N        -18.1270   22.6580  -13.4480 N.am   71  CYS71      -0.1956
     25  CA       -17.9030   21.3890  -14.1280 C.3    71  CYS71       0.1843
     26  C        -17.3900   21.6090  -15.5490 C.2    71  CYS71       0.2625
     27  O        -16.4980   20.8910  -15.9920 O.2    71  CYS71      -0.2714
     28  CB       -19.1820   20.5490  -14.1620 C.3    71  CYS71       0.0997
     29  SG       -19.7980   20.0990  -12.5220 S.3    71  CYS71      -0.0797
     30  N        -17.9610   22.5940  -16.2460 N.am   72  GLN72      -0.1977
     31  CA       -17.5360   22.9610  -17.6030 C.3    72  GLN72       0.1601
     32  C        -16.0650   23.3420  -17.6480 C.2    72  GLN72       0.2287
     33  O        -15.3140   22.8120  -18.4640 O.2    72  GLN72      -0.2864
     34  CB       -18.3210   24.1670  -18.1320 C.3    72  GLN72       0.0394
     35  CG       -19.6840   23.9020  -18.7300 C.3    72  GLN72       0.0908
     36  CD       -20.2470   25.1480  -19.4120 C.2    72  GLN72       0.2608
     37  OE1      -19.5380   25.8350  -20.1620 O.2    72  GLN72      -0.2717
     38  NE2      -21.5170   25.4480  -19.1550 N.am   72  GLN72      -0.0878
     39  N        -13.6850   22.8890  -15.4170 N.3    74  ARG74      -0.1231
     40  CA       -12.8660   21.7460  -15.0470 C.3    74  ARG74       0.1694
     41  C        -12.7390   20.7890  -16.2340 C.2    74  ARG74       0.2592
     42  O        -11.6880   20.2050  -16.4590 O.2    74  ARG74      -0.2718
     43  CB       -13.4510   21.0170  -13.8340 C.3    74  ARG74       0.0321
     44  CG       -12.6150   19.8260  -13.3550 C.3    74  ARG74       0.0489
     45  CD       -11.2030   20.2530  -12.9280 C.3    74  ARG74       0.2205
     46  NE       -10.3480   19.1140  -12.5810 N.pl3  74  ARG74      -0.0865
     47  CZ        -9.7440   18.3090  -13.4580 C.cat  74  ARG74       0.5346
     48  NH1       -9.8960   18.4780  -14.7660 N.pl3  74  ARG74       0.1354
     49  NH2       -8.9810   17.3110  -13.0210 N.pl3  74  ARG74       0.1354
     50  N        -13.8160   20.6450  -16.9940 N.am   75  SER75      -0.1952
     51  CA       -13.8080   19.8140  -18.1930 C.3    75  SER75       0.1924
     52  C        -12.8410   20.3970  -19.2130 C.2    75  SER75       0.2314
     53  O        -12.0490   19.6760  -19.8060 O.2    75  SER75      -0.2863
     54  CB       -15.2150   19.7170  -18.7940 C.3    75  SER75       0.2116
     55  OG       -15.4930   18.4060  -19.2470 O.3    75  SER75      -0.2180
     56  N        -14.4770   12.9910  -23.5410 N.3   109  HIS109     -0.1241
     57  CA       -15.5120   12.8750  -22.5080 C.3   109  HIS109      0.1621
     58  C        -15.5350   11.5080  -21.8790 C.2   109  HIS109      0.2264
     59  O        -15.7880   11.3940  -20.6900 O.2   109  HIS109     -0.2867
     60  CB       -16.9020   13.2670  -23.0150 C.3   109  HIS109      0.0745
     61  CG       -17.1000   14.7480  -23.0960 C.ar  109  HIS109      0.0817
     62  ND1      -17.0020   15.4510  -24.2770 N.ar  109  HIS109     -0.2268
     63  CD2      -17.3520   15.6610  -22.1320 C.ar  109  HIS109      0.1154
     64  CE1      -17.2010   16.7340  -24.0380 C.ar  109  HIS109      0.1986
     65  NE2      -17.4120   16.8890  -22.7430 N.ar  109  HIS109     -0.2212
     66  N        -12.8150   11.6980  -19.4510 N.3   112  ILE112     -0.1231
     67  CA       -13.1960   12.5830  -18.3470 C.3   112  ILE112      0.1692
     68  C        -14.0410   11.8230  -17.2970 C.2   112  ILE112      0.2592
     69  O        -13.7690   11.8900  -16.0970 O.2   112  ILE112     -0.2718
     70  CB       -13.9400   13.8540  -18.8670 C.3   112  ILE112      0.0266
     71  CG1      -12.9490   14.8250  -19.5170 C.3   112  ILE112      0.0019
     72  CG2      -14.6590   14.5680  -17.7340 C.3   112  ILE112      0.0020
     73  CD1      -13.5850   16.0800  -20.1130 C.3   112  ILE112      0.0001
     74  N        -15.0290   11.0620  -17.7490 N.am  113  TYR113     -0.1976
     75  CA       -15.9060   10.3310  -16.8190 C.3   113  TYR113      0.1639
     76  C        -15.2250    9.1270  -16.1810 C.2   113  TYR113      0.2290
     77  O        -15.5240    8.7860  -15.0340 O.2   113  TYR113     -0.2864
     78  CB       -17.2190    9.9330  -17.4990 C.3   113  TYR113      0.0560
     79  CG       -18.0140   11.1440  -17.9560 C.ar  113  TYR113     -0.0198
     80  CD1      -18.2620   12.1940  -17.0910 C.ar  113  TYR113     -0.0009
     81  CD2      -18.5000   11.2410  -19.2540 C.ar  113  TYR113     -0.0009
     82  CE1      -18.9540   13.3030  -17.4970 C.ar  113  TYR113      0.0417
     83  CE2      -19.2040   12.3440  -19.6670 C.ar  113  TYR113      0.0417
     84  CZ       -19.4300   13.3760  -18.7820 C.ar  113  TYR113      0.1957
     85  OH       -20.1440   14.4900  -19.1650 O.3   113  TYR113     -0.2866
     86  N        -13.0320   10.8740  -13.6000 N.3   116  LEU116     -0.1245
     87  CA       -13.9080   11.4410  -12.5740 C.3   116  LEU116      0.1561
     88  C        -14.2690   10.3840  -11.5190 C.2   116  LEU116      0.2260
     89  O        -14.3510   10.7020  -10.3430 O.2   116  LEU116     -0.2867
     90  CB       -15.1850   12.0270  -13.2020 C.3   116  LEU116      0.0270
     91  CG       -16.1520   12.7360  -12.2420 C.3   116  LEU116      0.0019
     92  CD1      -15.4710   13.9100  -11.5420 C.3   116  LEU116      0.0001
     93  CD2      -17.3690   13.1990  -13.0100 C.3   116  LEU116      0.0001
     94  N        -12.2460   10.3020   -8.4220 N.3   119  LEU119     -0.1231
     95  CA       -12.4710   11.3540   -7.4330 C.3   119  LEU119      0.1693
     96  C        -13.7630   11.1510   -6.6540 C.2   119  LEU119      0.2591
     97  O        -14.1190   12.0010   -5.8370 O.2   119  LEU119     -0.2718
     98  CB       -12.5150   12.7300   -8.1090 C.3   119  LEU119      0.0284
     99  CG       -11.4580   13.0840   -9.1520 C.3   119  LEU119      0.0019
    100  CD1      -11.4510   14.6040   -9.4090 C.3   119  LEU119      0.0001
    101  CD2      -10.0810   12.5960   -8.7610 C.3   119  LEU119      0.0001
    102  N        -14.4450   10.0190   -6.8940 N.am  120  MET120     -0.1979
    103  CA       -15.7850    9.7750   -6.3640 C.3   120  MET120      0.1605
    104  C        -15.8630    8.5620   -5.4420 C.2   120  MET120      0.2287
    105  O        -15.1740    7.5570   -5.6490 O.2   120  MET120     -0.2864
    106  CB       -16.7640    9.5130   -7.5210 C.3   120  MET120      0.0413
    107  CG       -17.1880   10.7210   -8.3150 C.3   120  MET120      0.0598
    108  SD       -18.2740   10.2730   -9.7040 S.3   120  MET120     -0.1393
    109  CE       -19.1350   11.8370   -9.9260 C.3   120  MET120      0.0692
    110  N        -17.9540   13.7750   -4.3090 N.3   125  VAL125     -0.1231
    111  CA       -16.8750   13.9100   -5.2620 C.3   125  VAL125      0.1692
    112  C        -15.9010   15.0190   -4.8650 C.2   125  VAL125      0.2592
    113  O        -16.3060   16.0920   -4.4060 O.2   125  VAL125     -0.2718
    114  CB       -17.4340   14.1980   -6.6790 C.3   125  VAL125      0.0266
    115  CG1      -18.1770   15.5540   -6.7310 C.3   125  VAL125      0.0020
    116  CG2      -16.3140   14.1430   -7.7040 C.3   125  VAL125      0.0020
    117  N        -14.6150   14.7520   -5.0510 N.am  126  LEU126     -0.1966
    118  CA       -13.5890   15.7370   -4.7660 C.3   126  LEU126      0.1728
    119  C        -13.6490   16.8660   -5.7840 C.2   126  LEU126      0.2616
    120  O        -13.9030   16.6440   -6.9730 O.2   126  LEU126     -0.2715
    121  CB       -12.2060   15.1040   -4.7800 C.3   126  LEU126      0.0311
    122  CG       -11.8500   14.1650   -3.6280 C.3   126  LEU126      0.0022
    123  CD1      -10.5390   13.4200   -3.9600 C.3   126  LEU126      0.0001
    124  CD2      -11.7180   14.9420   -2.3230 C.3   126  LEU126      0.0001
    125  N        -13.4300   18.0800   -5.2970 N.am  127  ILE127     -0.1977
    126  CA       -13.3300   19.2540   -6.1460 C.3   127  ILE127      0.1596
    127  C        -12.1060   20.0580   -5.7570 C.2   127  ILE127      0.2287
    128  O        -11.5050   19.8240   -4.7010 O.2   127  ILE127     -0.2864
    129  CB       -14.5800   20.1500   -6.0390 C.3   127  ILE127      0.0276
    130  CG1      -14.7950   20.6500   -4.6040 C.3   127  ILE127      0.0022
    131  CG2      -15.8120   19.3890   -6.5160 C.3   127  ILE127      0.0022
    132  CD1      -15.7900   21.8330   -4.5070 C.3   127  ILE127      0.0001
    133  N        -17.7570   17.7010   -2.4680 N.3   134  MET134     -0.1245
    134  CA       -19.1700   18.0510   -2.5950 C.3   134  MET134      0.1570
    135  C        -20.0250   16.7870   -2.5210 C.2   134  MET134      0.2261
    136  O        -19.7630   15.8220   -3.2400 O.2   134  MET134     -0.2867
    137  CB       -19.4130   18.7700   -3.9220 C.3   134  MET134      0.0387
    138  CG       -20.7750   19.4660   -4.0170 C.3   134  MET134      0.0595
    139  SD       -20.8930   20.5840   -5.4390 S.3   134  MET134     -0.1393
    140  CE       -19.7750   21.9020   -4.9740 C.3   134  MET134      0.0692
    141  N        -25.6340   17.8000   -4.6040 N.3   139  LEU139     -0.1245
    142  CA       -25.7380   17.8690   -6.0600 C.3   139  LEU139      0.1561
    143  C        -27.1420   17.4890   -6.5400 C.2   139  LEU139      0.2260
    144  O        -27.7120   18.1510   -7.4160 O.2   139  LEU139     -0.2867
    145  CB       -24.6760   16.9810   -6.7150 C.3   139  LEU139      0.0270
    146  CG       -23.2860   17.6110   -6.6810 C.3   139  LEU139      0.0019
    147  CD1      -22.1820   16.5750   -6.9010 C.3   139  LEU139      0.0001
    148  CD2      -23.2030   18.7470   -7.7170 C.3   139  LEU139      0.0001
    149  N        -27.9430   15.9390  -13.1010 N.3   149  PHE149     -0.1227
    150  CA       -26.8530   15.8280  -14.0610 C.3   149  PHE149      0.1736
    151  C        -25.6260   15.0410  -13.5680 C.2   149  PHE149      0.2595
    152  O        -24.8730   14.5280  -14.3890 O.2   149  PHE149     -0.2718
    153  CB       -26.4540   17.1990  -14.6240 C.3   149  PHE149      0.0547
    154  CG       -25.3770   17.9100  -13.8530 C.ar  149  PHE149     -0.0202
    155  CD1      -25.6980   18.7160  -12.7710 C.ar  149  PHE149     -0.0042
    156  CD2      -24.0530   17.8250  -14.2500 C.ar  149  PHE149     -0.0042
    157  CE1      -24.7100   19.3970  -12.0650 C.ar  149  PHE149     -0.0003
    158  CE2      -23.0550   18.5050  -13.5610 C.ar  149  PHE149     -0.0003
    159  CZ       -23.3790   19.2860  -12.4650 C.ar  149  PHE149     -0.0000
    160  N        -25.4460   14.9060  -12.2570 N.am  150  MET150     -0.1979
    161  CA       -24.3200   14.1150  -11.7400 C.3   150  MET150      0.1605
    162  C        -24.6840   12.6610  -11.4290 C.2   150  MET150      0.2287
    163  O        -23.8000   11.8110  -11.2910 O.2   150  MET150     -0.2864
    164  CB       -23.7160   14.7710  -10.5060 C.3   150  MET150      0.0413
    165  CG       -22.2100   14.6490  -10.4620 C.3   150  MET150      0.0598
    166  SD       -21.4320   15.7060  -11.7040 S.3   150  MET150     -0.1393
    167  CE       -21.6570   17.2860  -10.9010 C.3   150  MET150      0.0692
    168  N        -23.1830    9.8580  -13.4350 N.3   153  LYS153     -0.1245
    169  CA       -21.7390    9.7680  -13.2220 C.3   153  LYS153      0.1561
    170  C        -21.4010    9.0090  -11.9280 C.2   153  LYS153      0.2260
    171  O        -20.4730    8.1790  -11.9200 O.2   153  LYS153     -0.2867
    172  CB       -21.0960   11.1630  -13.2190 C.3   153  LYS153      0.0271
    173  CG       -21.0200   11.8310  -14.5890 C.3   153  LYS153      0.0035
    174  CD       -22.3820   12.2750  -15.1030 C.3   153  LYS153      0.0206
    175  CE       -22.2860   13.3200  -16.2050 C.3   153  LYS153      0.1093
    176  NZ       -23.6310   13.6020  -16.7990 N.3   153  LYS153     -0.1314
    177  N        -25.6590   12.8090  -21.2720 N.3   235  HIS235     -0.1241
    178  CA       -25.2610   14.1640  -20.9210 C.3   235  HIS235      0.1621
    179  C        -25.5650   15.1650  -22.0370 C.2   235  HIS235      0.2264
    180  O        -26.0420   16.2650  -21.7650 O.2   235  HIS235     -0.2867
    181  CB       -23.7840   14.2420  -20.5550 C.3   235  HIS235      0.0745
    182  CG       -23.3900   15.5760  -20.0080 C.ar  235  HIS235      0.0817
    183  ND1      -23.5650   15.9140  -18.6840 N.ar  235  HIS235     -0.2268
    184  CD2      -22.8840   16.6740  -20.6150 C.ar  235  HIS235      0.1154
    185  CE1      -23.1520   17.1550  -18.4940 C.ar  235  HIS235      0.1986
    186  NE2      -22.7380   17.6380  -19.6500 N.ar  235  HIS235     -0.2212
    187  N        -27.8140   18.4870  -21.7880 N.3   239  LEU239     -0.1245
    188  CA       -27.3170   19.8110  -22.1790 C.3   239  LEU239      0.1561
    189  C        -28.2570   20.4960  -23.1540 C.2   239  LEU239      0.2260
    190  O        -28.4610   21.7050  -23.0780 O.2   239  LEU239     -0.2867
    191  CB       -25.9300   19.7120  -22.8190 C.3   239  LEU239      0.0270
    192  CG       -24.8600   20.6140  -22.2190 C.3   239  LEU239      0.0019
    193  CD1      -25.2990   22.0650  -22.0600 C.3   239  LEU239      0.0001
    194  CD2      -24.4750   20.0380  -20.8830 C.3   239  LEU239      0.0001
    195  N        -21.9090   28.1210  -22.7750 N.3   251  LEU251     -0.1245
    196  CA       -21.1810   26.8760  -22.9330 C.3   251  LEU251      0.1561
    197  C        -19.8390   27.2260  -23.5750 C.2   251  LEU251      0.2260
    198  O        -19.8010   27.8790  -24.6260 O.2   251  LEU251     -0.2867
    199  CB       -21.9800   25.9130  -23.8200 C.3   251  LEU251      0.0270
    200  CG       -21.7890   24.3910  -23.6540 C.3   251  LEU251      0.0019
    201  CD1      -22.0500   23.6770  -24.9780 C.3   251  LEU251      0.0001
    202  CD2      -20.4220   24.0360  -23.1410 C.3   251  LEU251      0.0001
    203  N        -15.8710   22.9320  -25.5920 N.3   255  LEU255     -0.1245
    204  CA       -16.9050   21.9310  -25.3500 C.3   255  LEU255      0.1561
    205  C        -17.9720   21.9470  -26.4380 C.2   255  LEU255      0.2260
    206  O        -18.3790   20.8930  -26.9260 O.2   255  LEU255     -0.2867
    207  CB       -17.5490   22.1530  -23.9830 C.3   255  LEU255      0.0270
    208  CG       -16.5950   22.0950  -22.7860 C.3   255  LEU255      0.0019
    209  CD1      -17.3800   22.3350  -21.5110 C.3   255  LEU255      0.0001
    210  CD2      -15.8330   20.7550  -22.7240 C.3   255  LEU255      0.0001
    211  N        -19.0050   18.8130  -28.8360 N.3   259  TYR259     -0.1241
    212  CA       -20.3840   18.3060  -28.9680 C.3   259  TYR259      0.1605
    213  C        -21.0220   18.4760  -30.3480 C.2   259  TYR259      0.2264
    214  O        -22.0130   17.8150  -30.6520 O.2   259  TYR259     -0.2867
    215  CB       -21.3080   18.9800  -27.9520 C.3   259  TYR259      0.0534
    216  CG       -21.0600   18.5840  -26.5230 C.ar  259  TYR259     -0.0201
    217  CD1      -21.0590   17.2440  -26.1390 C.ar  259  TYR259     -0.0009
    218  CD2      -20.8520   19.5460  -25.5440 C.ar  259  TYR259     -0.0009
    219  CE1      -20.8430   16.8780  -24.8190 C.ar  259  TYR259      0.0417
    220  CE2      -20.6340   19.1880  -24.2250 C.ar  259  TYR259      0.0417
    221  CZ       -20.6310   17.8540  -23.8690 C.ar  259  TYR259      0.1957
    222  OH       -20.4230   17.4930  -22.5630 O.3   259  TYR259     -0.2866
@<TRIPOS>BOND
     1   214   213    2
     2   213   212    1
     3   212   211    1
     4   212   215    1
     5   215   216    1
     6   206   205    2
     7   216   217   ar
     8   216   218   ar
     9   205   204    1
    10   217   219   ar
    11   203   204    1
    12   218   220   ar
    13   204   207    1
    14   201   200    1
    15   219   221   ar
    16   198   197    2
    17    62    64   ar
    18    62    61   ar
    19   220   221   ar
    20    64    65   ar
    21   207   208    1
    22   221   222    1
    23   199   200    1
    24   199   196    1
    25   200   202    1
    26   197   196    1
    27    56    57    1
    28   189   190    2
    29   189   188    1
    30    61    60    1
    31    61    63   ar
    32    60    57    1
    33   196   195    1
    34   191   192    1
    35   191   188    1
    36   208   210    1
    37   208   209    1
    38    65    63   ar
    39    57    58    1
    40   192   193    1
    41   192   194    1
    42   188   187    1
    43   179   180    2
    44   179   178    1
    45    58    59    2
    46   177   178    1
    47   178   181    1
    48   184   182   ar
    49   184   186   ar
    50   181   182    1
    51    37    36    2
    52    73    71    1
    53   182   183   ar
    54    53    52    2
    55    83    81   ar
    56    83    84   ar
    57   186   185   ar
    58    71    70    1
    59    66    67    1
    60    36    38   am
    61    36    35    1
    62    81    79   ar
    63    55    54    1
    64    52    51    1
    65    85    84    1
    66    70    67    1
    67    70    72    1
    68    54    51    1
    69    84    82   ar
    70    35    34    1
    71   183   185   ar
    72    33    32    2
    73    67    68    1
    74    51    50    1
    75    34    31    1
    76    79    78    1
    77    79    80   ar
    78    18    19   ar
    79    18    16   ar
    80    74    68   am
    81    74    75    1
    82    19    17   ar
    83    32    31    1
    84    31    30    1
    85    78    75    1
    86    82    80   ar
    87    68    69    2
    88    50    41   am
    89    75    76    1
    90   176   175    1
    91    16    14   ar
    92    17    15   ar
    93    42    41    2
    94    30    26   am
    95    41    40    1
    96   175   174    1
    97    76    77    2
    98    27    26    2
    99    26    25    1
   100    14    15   ar
   101    14    13    1
   102    39    40    1
   103    12    11    2
   104   174   173    1
   105    40    43    1
   106    48    47    1
   107   153   150    1
   108   153   154    1
   109   173   172    1
   110    11    10    1
   111   152   151    2
   112    13    10    1
   113   156   154   ar
   114   156   158   ar
   115    28    25    1
   116    28    29    1
   117    25    24    1
   118   150   151    1
   119   150   149    1
   120   154   155   ar
   121    43    44    1
   122    86    87    1
   123   151   160   am
   124    10     9    1
   125   158   159   ar
   126    23    22    2
   127    47    49    1
   128    47    46    2
   129    24    22   am
   130   168   169    1
   131    44    45    1
   132   169   172    1
   133   169   170    1
   134    20    21    1
   135    22    21    1
   136    90    87    1
   137    90    91    1
   138    93    91    1
   139    45    46    1
   140   155   157   ar
   141    87    88    1
   142   159   157   ar
   143   160   161    1
   144    91    92    1
   145     9     3   am
   146   170   171    2
   147   161   162    1
   148   161   164    1
   149   166   167    1
   150   166   165    1
   151     4     3    2
   152    88    89    2
   153   162   163    2
   154     3     2    1
   155   164   165    1
   156     1     2    1
   157     2     5    1
   158   109   108    1
   159   108   107    1
   160   100    99    1
   161     7     5    1
   162    99   101    1
   163    99    98    1
   164     5     6    1
   165    94    95    1
   166   107   106    1
   167    98    95    1
   168   148   146    1
   169   116   114    1
   170     6     8    1
   171   106   103    1
   172    95    96    1
   173   144   143    2
   174   120   119    2
   175   147   146    1
   176   102    96   am
   177   102   103    1
   178   115   114    1
   179   145   146    1
   180   145   142    1
   181   114   111    1
   182    96    97    2
   183   143   142    1
   184   131   129    1
   185   103   104    1
   186   126   129    1
   187   126   127    1
   188   126   125    1
   189   142   141    1
   190   129   130    1
   191   119   125   am
   192   119   118    1
   193   127   128    2
   194   105   104    2
   195   139   140    1
   196   139   138    1
   197   111   112    1
   198   111   110    1
   199   117   112   am
   200   117   118    1
   201   112   113    2
   202   121   118    1
   203   121   122    1
   204   130   132    1
   205   138   137    1
   206   123   122    1
   207   137   134    1
   208   122   124    1
   209   136   135    2
   210   134   135    1
   211   134   133    1
