@<TRIPOS>MOLECULE
tmp/3b0uC01.pdb
 185 175 0 0 0
SMALL
GASTEIGER

@<TRIPOS>ATOM
      1  N        -25.4700  -14.2990   25.2230 N.3     8  ALA8       -0.1231
      2  CA       -25.5000  -13.4950   26.4400 C.3     8  ALA8        0.1679
      3  C        -26.6770  -13.8440   27.3430 C.2     8  ALA8        0.2434
      4  O        -27.7680  -14.1430   26.8580 O.2     8  ALA8       -0.2733
      5  CB       -25.5500  -12.0180   26.0810 C.3     8  ALA8        0.0304
      6  N        -26.4610  -13.7920   28.6660 N.am    9  PRO9       -0.2718
      7  CA       -27.5820  -13.8950   29.6050 C.3     9  PRO9        0.1535
      8  C        -28.5320  -12.7210   29.3890 C.2     9  PRO9        0.2598
      9  O        -28.0760  -11.5800   29.3280 O.2     9  PRO9       -0.2715
     10  CB       -26.9040  -13.7710   30.9740 C.3     9  PRO9        0.0310
     11  CG       -25.6080  -13.0690   30.7000 C.3     9  PRO9        0.0237
     12  CD       -25.1780  -13.5660   29.3540 C.3     9  PRO9        0.0939
     13  N        -29.8260  -12.9960   29.2640 N.am   10  MET10      -0.1964
     14  CA       -30.8010  -11.9410   29.0200 C.3    10  MET10       0.1736
     15  C        -32.1190  -12.2060   29.7390 C.2    10  MET10       0.2616
     16  O        -32.8830  -13.0870   29.3470 O.2    10  MET10      -0.2715
     17  CB       -31.0400  -11.7680   27.5180 C.3    10  MET10       0.0427
     18  CG       -29.8200  -11.2620   26.7490 C.3    10  MET10       0.0599
     19  SD       -30.1440  -11.0110   24.9930 S.3    10  MET10      -0.1393
     20  CE       -30.4300  -12.7010   24.4760 C.3    10  MET10       0.0692
     21  N        -32.3750  -11.4400   30.7970 N.am   11  VAL11      -0.1977
     22  CA       -33.6230  -11.5640   31.5440 C.3    11  VAL11       0.1596
     23  C        -34.8300  -11.4790   30.6150 C.2    11  VAL11       0.2287
     24  O        -34.9000  -10.6020   29.7510 O.2    11  VAL11      -0.2864
     25  CB       -33.7420  -10.4870   32.6400 C.3    11  VAL11       0.0276
     26  CG1      -35.1400  -10.4940   33.2490 C.3    11  VAL11       0.0022
     27  CG2      -32.6920  -10.7080   33.7130 C.3    11  VAL11       0.0022
     28  N        -35.5240  -13.3980   28.3060 N.3    13  ARG13      -0.1245
     29  CA       -35.1800  -13.9010   26.9820 C.3    13  ARG13       0.1563
     30  C        -34.5720  -15.3000   27.0570 C.2    13  ARG13       0.2260
     31  O        -35.1070  -16.2510   26.4880 O.2    13  ARG13      -0.2867
     32  CB       -34.1940  -12.9620   26.2820 C.3    13  ARG13       0.0307
     33  CG       -34.6270  -11.5060   26.2170 C.3    13  ARG13       0.0489
     34  CD       -35.7910  -11.2990   25.2650 C.3    13  ARG13       0.2205
     35  NE       -36.0740   -9.8790   25.0680 N.pl3  13  ARG13      -0.0865
     36  CZ       -36.9460   -9.1830   25.7900 C.cat  13  ARG13       0.5346
     37  NH1      -37.1380   -7.8940   25.5400 N.pl3  13  ARG13       0.1354
     38  NH2      -37.6280   -9.7750   26.7600 N.pl3  13  ARG13       0.1354
     39  N        -30.0780  -13.6800   34.3950 N.3    35  MET35      -0.1245
     40  CA       -29.5760  -13.3390   35.7160 C.3    35  MET35       0.1570
     41  C        -30.5310  -13.9180   36.7490 C.2    35  MET35       0.2261
     42  O        -31.7430  -13.7150   36.6650 O.2    35  MET35      -0.2867
     43  CB       -29.4830  -11.8240   35.8890 C.3    35  MET35       0.0387
     44  CG       -28.9300  -11.3870   37.2340 C.3    35  MET35       0.0595
     45  SD       -29.0420   -9.6040   37.4660 S.3    35  MET35      -0.1393
     46  CE       -30.7820   -9.4250   37.8540 C.3    35  MET35       0.0692
     47  N        -25.9300  -17.8660   35.7040 N.3    62  GLN62      -0.1245
     48  CA       -25.5030  -16.5690   36.2150 C.3    62  GLN62       0.1566
     49  C        -26.2610  -16.2010   37.4800 C.2    62  GLN62       0.2260
     50  O        -27.4940  -16.2150   37.5090 O.2    62  GLN62      -0.2867
     51  CB       -25.6600  -15.4570   35.1770 C.3    62  GLN62       0.0367
     52  CG       -25.1530  -14.1140   35.6970 C.3    62  GLN62       0.0905
     53  CD       -25.4440  -12.9590   34.7630 C.2    62  GLN62       0.2608
     54  OE1      -26.5830  -12.5020   34.6560 O.2    62  GLN62      -0.2717
     55  NE2      -24.4110  -12.4750   34.0830 N.am   62  GLN62      -0.0878
     56  N        -22.7700  -12.0690   38.1080 N.3    89  ASN89      -0.1240
     57  CA       -23.1760  -10.8370   37.4510 C.3    89  ASN89       0.1653
     58  C        -22.5320   -9.6180   38.1050 C.2    89  ASN89       0.2266
     59  O        -22.7650   -9.3380   39.2790 O.2    89  ASN89      -0.2867
     60  CB       -24.7000  -10.6990   37.4500 C.3    89  ASN89       0.1155
     61  CG       -25.1720   -9.4510   36.7270 C.2    89  ASN89       0.2627
     62  OD1      -24.7710   -8.3350   37.0600 O.2    89  ASN89      -0.2716
     63  ND2      -26.0190   -9.6360   35.7190 N.am   89  ASN89      -0.0877
     64  N        -22.4760   -6.5860   36.1380 N.3    91  GLY91      -0.1210
     65  CA       -22.7550   -5.6100   35.1010 C.3    91  GLY91       0.1956
     66  C        -24.1640   -5.0470   35.0590 C.2    91  GLY91       0.2612
     67  O        -24.4190   -4.0850   34.3350 O.2    91  GLY91      -0.2717
     68  N        -25.0840   -5.6340   35.8190 N.am   92  CYS92      -0.1970
     69  CA       -26.4700   -5.1660   35.8010 C.3    92  CYS92       0.1712
     70  C        -26.5910   -3.7730   36.4130 C.2    92  CYS92       0.2296
     71  O        -26.1700   -3.5530   37.5420 O.2    92  CYS92      -0.2864
     72  CB       -27.3950   -6.1420   36.5290 C.3    92  CYS92       0.0983
     73  SG       -29.1480   -5.9100   36.1310 S.3    92  CYS92      -0.0798
     74  N        -19.0950  -11.7700   34.5860 N.3   131  LYS131     -0.1245
     75  CA       -19.4900  -10.9270   33.4680 C.3   131  LYS131      0.1561
     76  C        -19.5620   -9.5010   33.9940 C.2   131  LYS131      0.2260
     77  O        -20.3170   -9.2100   34.9190 O.2   131  LYS131     -0.2867
     78  CB       -20.8310  -11.3680   32.8780 C.3   131  LYS131      0.0271
     79  CG       -21.2490  -10.5620   31.6500 C.3   131  LYS131      0.0035
     80  CD       -22.5010  -11.1390   30.9930 C.3   131  LYS131      0.0206
     81  CE       -22.9930  -10.2430   29.8620 C.3   131  LYS131      0.1093
     82  NZ       -23.5790   -8.9610   30.3830 N.3   131  LYS131     -0.1314
     83  N        -18.6450   -4.9590   33.3890 N.3   133  ARG133     -0.1245
     84  CA       -18.5450   -3.8220   32.4880 C.3   133  ARG133      0.1563
     85  C        -17.1570   -3.2100   32.6330 C.2   133  ARG133      0.2260
     86  O        -16.3740   -3.6510   33.4740 O.2   133  ARG133     -0.2867
     87  CB       -19.6450   -2.8020   32.7860 C.3   133  ARG133      0.0307
     88  CG       -21.0370   -3.2970   32.4010 C.3   133  ARG133      0.0489
     89  CD       -22.0840   -2.2070   32.5220 C.3   133  ARG133      0.2205
     90  NE       -23.3920   -2.6570   32.0520 N.pl3 133  ARG133     -0.0865
     91  CZ       -24.0800   -2.0760   31.0750 C.cat 133  ARG133      0.5346
     92  NH1      -23.5970   -1.0030   30.4600 N.pl3 133  ARG133      0.1354
     93  NH2      -25.2630   -2.5620   30.7200 N.pl3 133  ARG133      0.1354
     94  N        -18.6490   -6.9000   28.9190 N.3   163  HIS163     -0.1241
     95  CA       -19.4910   -5.9830   28.1710 C.3   163  HIS163      0.1621
     96  C        -18.6790   -4.6980   28.0980 C.2   163  HIS163      0.2264
     97  O        -18.5370   -3.9900   29.0960 O.2   163  HIS163     -0.2867
     98  CB       -20.8140   -5.7570   28.9110 C.3   163  HIS163      0.0745
     99  CG       -21.7990   -4.9160   28.1580 C.ar  163  HIS163      0.0817
    100  ND1      -23.0260   -4.5620   28.6790 N.ar  163  HIS163     -0.2268
    101  CD2      -21.7380   -4.3570   26.9260 C.ar  163  HIS163      0.1154
    102  CE1      -23.6770   -3.8180   27.8010 C.ar  163  HIS163      0.1986
    103  NE2      -22.9180   -3.6790   26.7280 N.ar  163  HIS163     -0.2212
    104  N        -27.1870    0.0470   27.2590 N.3   177  ARG177     -0.1245
    105  CA       -26.6020   -0.8060   26.2310 C.3   177  ARG177      0.1563
    106  C        -26.6270   -0.1070   24.8750 C.2   177  ARG177      0.2260
    107  O        -26.5810   -0.7520   23.8260 O.2   177  ARG177     -0.2867
    108  CB       -27.3000   -2.1710   26.1760 C.3   177  ARG177      0.0307
    109  CG       -28.7450   -2.1320   25.7260 C.3   177  ARG177      0.0489
    110  CD       -29.3610   -3.5230   25.7820 C.3   177  ARG177      0.2205
    111  NE       -29.4140   -4.0350   27.1480 N.pl3 177  ARG177     -0.0865
    112  CZ       -30.5120   -4.0520   27.8960 C.cat 177  ARG177      0.5346
    113  NH1      -30.4640   -4.5320   29.1310 N.pl3 177  ARG177      0.1354
    114  NH2      -31.6580   -3.5970   27.4090 N.pl3 177  ARG177      0.1354
    115  N        -17.8630   -8.4710   24.5410 N.3   202  ASN202     -0.1225
    116  CA       -19.3060   -8.3910   24.3800 C.3   202  ASN202      0.1785
    117  C        -19.7680   -6.9490   24.1830 C.2   202  ASN202      0.2598
    118  O        -19.2190   -6.0260   24.7860 O.2   202  ASN202     -0.2718
    119  CB       -19.9890   -9.0180   25.6010 C.3   202  ASN202      0.1169
    120  CG       -21.4650   -8.6870   25.6890 C.2   202  ASN202      0.2627
    121  OD1      -21.8890   -7.9280   26.5640 O.2   202  ASN202     -0.2716
    122  ND2      -22.2600   -9.2620   24.7920 N.am  202  ASN202     -0.0877
    123  N        -20.7670   -6.7610   23.3250 N.am  203  GLY203     -0.1942
    124  CA       -21.3560   -5.4500   23.1180 C.3   203  GLY203      0.2014
    125  C        -21.4530   -5.0390   21.6610 C.2   203  GLY203      0.2639
    126  O        -20.4430   -4.7640   21.0170 O.2   203  GLY203     -0.2714
    127  N        -22.6770   -5.0070   21.1430 N.am  204  GLY204     -0.1939
    128  CA       -22.9380   -4.4970   19.8090 C.3   204  GLY204      0.2014
    129  C        -22.4450   -5.3500   18.6550 C.2   204  GLY204      0.2639
    130  O        -22.4360   -4.8980   17.5130 O.2   204  GLY204     -0.2714
    131  N        -22.0400   -6.5840   18.9370 N.am  205  ILE205     -0.1963
    132  CA       -21.5710   -7.4760   17.8790 C.3   205  ILE205      0.1727
    133  C        -22.7640   -8.1110   17.1620 C.2   205  ILE205      0.2616
    134  O        -23.5480   -8.8390   17.7660 O.2   205  ILE205     -0.2715
    135  CB       -20.6090   -8.5410   18.4290 C.3   205  ILE205      0.0290
    136  CG1      -19.3770   -7.8490   19.0250 C.3   205  ILE205      0.0022
    137  CG2      -20.2070   -9.5150   17.3300 C.3   205  ILE205      0.0023
    138  CD1      -18.4930   -8.7490   19.8570 C.3   205  ILE205      0.0001
    139  N        -22.8900   -7.8220   15.8690 N.am  206  ARG206     -0.1977
    140  CA       -24.1320   -8.0680   15.1390 C.3   206  ARG206      0.1597
    141  C        -24.1210   -9.2950   14.2310 C.2   206  ARG206      0.2287
    142  O        -25.1780   -9.7500   13.7880 O.2   206  ARG206     -0.2864
    143  CB       -24.4930   -6.8360   14.3040 C.3   206  ARG206      0.0334
    144  CG       -24.5510   -5.5390   15.0950 C.3   206  ARG206      0.0492
    145  CD       -25.6440   -5.5860   16.1450 C.3   206  ARG206      0.2205
    146  NE       -26.9280   -5.9560   15.5600 N.pl3 206  ARG206     -0.0865
    147  CZ       -28.0650   -6.0470   16.2410 C.cat 206  ARG206      0.5346
    148  NH1      -28.0880   -5.7880   17.5420 N.pl3 206  ARG206      0.1354
    149  NH2      -29.1810   -6.3940   15.6170 N.pl3 206  ARG206      0.1354
    150  N        -19.3020  -12.8900   22.9610 N.3   222  MET222     -0.1230
    151  CA       -20.6520  -13.1410   23.4470 C.3   222  MET222      0.1702
    152  C        -21.6520  -12.2550   22.7110 C.2   222  MET222      0.2592
    153  O        -21.4720  -11.0390   22.6330 O.2   222  MET222     -0.2718
    154  CB       -20.7250  -12.8960   24.9560 C.3   222  MET222      0.0401
    155  CG       -22.1320  -12.9570   25.5320 C.3   222  MET222      0.0596
    156  SD       -22.1660  -12.6950   27.3160 S.3   222  MET222     -0.1393
    157  CE       -21.7480  -14.3300   27.9210 C.3   222  MET222      0.0692
    158  N        -22.6970  -12.8720   22.1650 N.am  223  LEU223     -0.1966
    159  CA       -23.7390  -12.1490   21.4440 C.3   223  LEU223      0.1728
    160  C        -25.0760  -12.2420   22.1690 C.2   223  LEU223      0.2617
    161  O        -25.5070  -13.3280   22.5610 O.2   223  LEU223     -0.2715
    162  CB       -23.8970  -12.6910   20.0200 C.3   223  LEU223      0.0311
    163  CG       -22.6990  -12.6060   19.0700 C.3   223  LEU223      0.0022
    164  CD1      -21.7120  -13.7100   19.3660 C.3   223  LEU223      0.0001
    165  CD2      -23.1700  -12.6930   17.6230 C.3   223  LEU223      0.0001
    166  N        -25.7290  -11.0990   22.3460 N.am  224  GLY224     -0.1940
    167  CA       -27.0230  -11.0570   23.0020 C.3   224  GLY224      0.2014
    168  C        -28.1550  -10.7020   22.0550 C.2   224  GLY224      0.2639
    169  O        -28.8040  -11.5790   21.4880 O.2   224  GLY224     -0.2714
    170  N        -28.3870   -9.4060   21.8790 N.am  225  ARG225     -0.1963
    171  CA       -29.5320   -8.9310   21.1060 C.3   225  ARG225      0.1729
    172  C        -29.6020   -9.5010   19.6900 C.2   225  ARG225      0.2616
    173  O        -30.6820   -9.8630   19.2160 O.2   225  ARG225     -0.2715
    174  CB       -29.5610   -7.4010   21.0770 C.3   225  ARG225      0.0348
    175  CG       -29.9990   -6.7890   22.3990 C.3   225  ARG225      0.0492
    176  CD       -29.7100   -5.2980   22.4550 C.3   225  ARG225      0.2205
    177  NE       -28.2770   -5.0260   22.5250 N.pl3 225  ARG225     -0.0865
    178  CZ       -27.7430   -3.8100   22.4650 C.cat 225  ARG225      0.5346
    179  NH1      -28.5240   -2.7460   22.3310 N.pl3 225  ARG225      0.1354
    180  NH2      -26.4270   -3.6570   22.5360 N.pl3 225  ARG225      0.1354
    181  N        -28.4570   -9.5840   19.0200 N.am  226  ALA226     -0.1977
    182  CA       -28.4200  -10.0900   17.6510 C.3   226  ALA226      0.1597
    183  C        -29.0160  -11.4940   17.5540 C.2   226  ALA226      0.2287
    184  O        -29.7150  -11.8220   16.5890 O.2   226  ALA226     -0.2864
    185  CB       -26.9950  -10.0730   17.1130 C.3   226  ALA226      0.0319
@<TRIPOS>BOND
     1   142   141    2
     2   141   140    1
     3   143   144    1
     4   143   140    1
     5   144   145    1
     6   140   139    1
     7   146   145    1
     8   146   147    2
     9   149   147    1
    10   139   133   am
    11   147   148    1
    12   184   183    2
    13   185   182    1
    14   133   134    2
    15   133   132    1
    16   137   135    1
    17   130   129    2
    18   183   182    1
    19   165   163    1
    20   182   181    1
    21   132   135    1
    22   132   131    1
    23   135   136    1
    24   129   131   am
    25   129   128    1
    26   181   172   am
    27   136   138    1
    28   163   164    1
    29   163   162    1
    30   173   172    2
    31   172   171    1
    32   128   127    1
    33   162   159    1
    34   126   125    2
    35   174   171    1
    36   174   175    1
    37   171   170    1
    38   127   125   am
    39   159   158    1
    40   159   160    1
    41   169   168    2
    42   125   124    1
    43   170   168   am
    44   168   167    1
    45   158   152   am
    46   160   166   am
    47   160   161    2
    48   179   178    1
    49   166   167    1
    50   175   176    1
    51   176   177    1
    52   178   177    2
    53   178   180    1
    54   153   152    2
    55   152   151    1
    56   150   151    1
    57   124   123    1
    58   123   117   am
    59   151   154    1
    60   107   106    2
    61   117   116    1
    62   117   118    2
    63   116   115    1
    64   116   119    1
    65    20    19    1
    66   122   120   am
    67   106   105    1
    68   154   155    1
    69    19    18    1
    70    35    34    1
    71    35    36    2
    72     1     2    1
    73    34    33    1
    74   155   156    1
    75    37    36    1
    76   119   120    1
    77   120   121    2
    78   109   110    1
    79   109   108    1
    80   110   111    1
    81    36    38    1
    82     5     2    1
    83   108   105    1
    84    33    32    1
    85   105   104    1
    86    32    29    1
    87     2     3    1
    88    31    30    2
    89   103   101   ar
    90   103   102   ar
    91    18    17    1
    92     4     3    2
    93   101    99   ar
    94    29    30    1
    95    29    28    1
    96   111   112    2
    97   156   157    1
    98     3     6   am
    99   114   112    1
   100    17    14    1
   101   102   100   ar
   102   112   113    1
   103    96    95    1
   104    96    97    2
   105    99   100   ar
   106    99    98    1
   107    95    98    1
   108    95    94    1
   109     6    12    1
   110     6     7    1
   111    14    13    1
   112    14    15    1
   113    13     8   am
   114     9     8    2
   115    16    15    2
   116    12    11    1
   117     8     7    1
   118     7    10    1
   119    15    21   am
   120    24    23    2
   121    81    82    1
   122    81    80    1
   123    92    91    1
   124    23    22    1
   125    11    10    1
   126    93    91    1
   127    21    22    1
   128    80    79    1
   129    91    90    2
   130    22    25    1
   131    79    78    1
   132    90    89    1
   133    88    89    1
   134    88    87    1
   135    84    85    1
   136    84    87    1
   137    84    83    1
   138    85    86    2
   139    25    26    1
   140    25    27    1
   141    78    75    1
   142    75    76    1
   143    75    74    1
   144    76    77    2
   145    55    53   am
   146    67    66    2
   147    39    40    1
   148    54    53    2
   149    53    52    1
   150    66    65    1
   151    66    68   am
   152    65    64    1
   153    51    52    1
   154    51    48    1
   155    47    48    1
   156    40    43    1
   157    40    41    1
   158    63    61   am
   159    69    68    1
   160    69    70    1
   161    69    72    1
   162    43    44    1
   163    73    72    1
   164    48    49    1
   165    70    71    2
   166    42    41    2
   167    61    62    2
   168    61    60    1
   169    44    45    1
   170    60    57    1
   171    57    58    1
   172    57    56    1
   173    45    46    1
   174    49    50    2
   175    58    59    2
