@<TRIPOS>MOLECULE
tmp/3b0yA00.pdb
 131 122 0 0 0
SMALL
GASTEIGER

@<TRIPOS>ATOM
      1  N         21.3840   -5.8180   -3.8130 N.3   157  ARG157     -0.1245
      2  CA        21.2100   -4.9250   -2.6630 C.3   157  ARG157      0.1563
      3  C         22.0680   -5.4320   -1.5100 C.2   157  ARG157      0.2260
      4  O         22.3530   -6.6320   -1.4030 O.2   157  ARG157     -0.2867
      5  CB        19.7340   -4.8420   -2.2820 C.3   157  ARG157      0.0307
      6  CG        18.8580   -4.4710   -3.4860 C.3   157  ARG157      0.0489
      7  CD        17.4030   -4.2670   -3.1360 C.3   157  ARG157      0.2205
      8  NE        17.1640   -3.1080   -2.2670 N.pl3 157  ARG157     -0.0865
      9  CZ        17.0730   -1.8490   -2.6850 C.cat 157  ARG157      0.5346
     10  NH1       17.1370   -1.5540   -3.9750 N.pl3 157  ARG157      0.1354
     11  NH2       16.8490   -0.8980   -1.8020 N.pl3 157  ARG157      0.1354
     12  N         19.0150    9.2150   -0.8650 N.3   187  GLY187     -0.1210
     13  CA        18.4430    7.9690   -1.3270 C.3   187  GLY187      0.1956
     14  C         17.8200    7.1370   -0.2200 C.2   187  GLY187      0.2612
     15  O         17.4220    7.6240    0.8580 O.2   187  GLY187     -0.2717
     16  N         17.7320    5.8420   -0.4930 N.am  188  SER188     -0.1952
     17  CA        17.0830    4.9260    0.4590 C.3   188  SER188      0.1924
     18  C         17.8270    4.7700    1.7740 C.2   188  SER188      0.2314
     19  O         17.2110    4.4900    2.8130 O.2   188  SER188     -0.2863
     20  CB        16.8440    3.5730   -0.1990 C.3   188  SER188      0.2116
     21  OG        18.1060    3.0230   -0.5350 O.3   188  SER188     -0.2180
     22  N         16.4390    7.0880    4.2360 N.3   191  ARG191     -0.1245
     23  CA        15.1230    6.6110    4.6800 C.3   191  ARG191      0.1563
     24  C         15.2300    5.3730    5.5960 C.2   191  ARG191      0.2260
     25  O         14.2130    4.8730    6.0450 O.2   191  ARG191     -0.2867
     26  CB        14.2120    6.3190    3.4870 C.3   191  ARG191      0.0307
     27  CG        14.1360    7.4580    2.4680 C.3   191  ARG191      0.0489
     28  CD        12.9050    7.3610    1.5640 C.3   191  ARG191      0.2205
     29  NE        12.8070    6.0420    0.9300 N.pl3 191  ARG191     -0.0865
     30  CZ        13.4140    5.6830   -0.2010 C.cat 191  ARG191      0.5346
     31  NH1       14.2070    6.5160   -0.8850 N.pl3 191  ARG191      0.1354
     32  NH2       13.2360    4.4400   -0.6750 N.pl3 191  ARG191      0.1354
     33  N         15.9580    2.3550    4.9130 N.3   193  LYS193     -0.1245
     34  CA        15.5350    1.1020    4.2850 C.3   193  LYS193      0.1561
     35  C         16.5500    0.0220    4.6190 C.2   193  LYS193      0.2260
     36  O         17.7570    0.2890    4.6400 O.2   193  LYS193     -0.2867
     37  CB        15.4290    1.3170    2.7790 C.3   193  LYS193      0.0271
     38  CG        14.6590    0.1970    2.0770 C.3   193  LYS193      0.0035
     39  CD        14.5330    0.5320    0.6080 C.3   193  LYS193      0.0206
     40  CE        13.8020   -0.5670   -0.1480 C.3   193  LYS193      0.1093
     41  NZ        12.3650   -0.5510    0.2220 N.3   193  LYS193     -0.1314
     42  N         20.3170   -0.1540   -2.7040 N.3   197  GLY197     -0.1210
     43  CA        21.0420   -0.2760   -3.9710 C.3   197  GLY197      0.1956
     44  C         22.2340    0.6610   -3.9320 C.2   197  GLY197      0.2611
     45  O         23.0170    0.6670   -2.9750 O.2   197  GLY197     -0.2717
     46  N         22.3770    1.4640   -4.9700 N.am  198  ASP198     -0.1973
     47  CA        23.4830    2.4130   -4.9660 C.3   198  ASP198      0.1709
     48  C         23.3100    3.4680   -3.8640 C.2   198  ASP198      0.2293
     49  O         22.2040    3.6510   -3.3240 O.2   198  ASP198     -0.2864
     50  CB        23.7040    3.0500   -6.3580 C.3   198  ASP198      0.1436
     51  CG        22.5690    3.9540   -6.7950 C.2   198  ASP198      0.3671
     52  OD1       21.7200    4.3760   -5.9980 O.co2 198  ASP198     -0.2456
     53  OD2       22.5240    4.2830   -8.0020 O.co2 198  ASP198     -0.2456
     54  N         23.6010    7.5080   -2.7520 N.3   200  ASP200     -0.1239
     55  CA        23.3630    8.7700   -3.4490 C.3   200  ASP200      0.1674
     56  C         23.7240    9.9170   -2.5180 C.2   200  ASP200      0.2266
     57  O         23.2420    9.9600   -1.3840 O.2   200  ASP200     -0.2867
     58  CB        21.8650    8.8720   -3.7670 C.3   200  ASP200      0.1410
     59  CG        21.3820    7.6660   -4.5080 C.2   200  ASP200      0.3668
     60  OD1       21.5260    7.6530   -5.7460 O.co2 200  ASP200     -0.2456
     61  OD2       20.8890    6.7200   -3.8440 O.co2 200  ASP200     -0.2456
     62  N         26.2830    7.5560   -6.6360 N.3   243  ASP243     -0.1239
     63  CA        25.8200    8.6720   -7.4400 C.3   243  ASP243      0.1674
     64  C         26.0110    9.9620   -6.6390 C.2   243  ASP243      0.2266
     65  O         25.7330   10.0090   -5.4360 O.2   243  ASP243     -0.2867
     66  CB        24.3260    8.5450   -7.7180 C.3   243  ASP243      0.1410
     67  CG        23.9860    7.4850   -8.7470 C.2   243  ASP243      0.3668
     68  OD1       24.8530    7.0460   -9.5230 O.co2 243  ASP243     -0.2456
     69  OD2       22.7980    7.1170   -8.7870 O.co2 243  ASP243     -0.2456
     70  N         14.5690   15.9170   -3.3230 N.3   258  TYR258     -0.1227
     71  CA        14.6120   15.2040   -4.5890 C.3   258  TYR258      0.1736
     72  C         15.3760   13.8930   -4.4440 C.2   258  TYR258      0.2595
     73  O         14.9310   12.8300   -4.9040 O.2   258  TYR258     -0.2718
     74  CB        15.2790   16.0980   -5.6380 C.3   258  TYR258      0.0548
     75  CG        15.5140   15.4240   -6.9550 C.ar  258  TYR258     -0.0200
     76  CD1       14.5410   15.4570   -7.9470 C.ar  258  TYR258     -0.0009
     77  CD2       16.6770   14.7070   -7.1920 C.ar  258  TYR258     -0.0009
     78  CE1       14.7430   14.8210   -9.1590 C.ar  258  TYR258      0.0417
     79  CE2       16.8960   14.0750   -8.4070 C.ar  258  TYR258      0.0417
     80  CZ        15.9300   14.1190   -9.3770 C.ar  258  TYR258      0.1957
     81  OH        16.1210   13.4740  -10.5830 O.3   258  TYR258     -0.2866
     82  N         16.5760   13.9850   -3.8750 N.am  259  LEU259     -0.1966
     83  CA        17.4700   12.8350   -3.8820 C.3   259  LEU259      0.1728
     84  C         17.1350   11.8120   -2.7920 C.2   259  LEU259      0.2617
     85  O         17.6760   10.7100   -2.8060 O.2   259  LEU259     -0.2715
     86  CB        18.9250   13.3280   -3.8170 C.3   259  LEU259      0.0311
     87  CG        19.9400   12.2800   -4.2670 C.3   259  LEU259      0.0022
     88  CD1       19.6410   11.7120   -5.6100 C.3   259  LEU259      0.0001
     89  CD2       21.3740   12.7810   -4.1700 C.3   259  LEU259      0.0001
     90  N         16.2980   12.2000   -1.8340 N.am  260  THR260     -0.1937
     91  CA        15.8960   11.2760   -0.7620 C.3   260  THR260      0.2028
     92  C         14.6870   10.4470   -1.1620 C.2   260  THR260      0.2643
     93  O         14.5520    9.3080   -0.7320 O.2   260  THR260     -0.2714
     94  CB        15.6190   12.0780    0.5380 C.3   260  THR260      0.1808
     95  OG1       16.8550   12.7040    0.9390 O.3   260  THR260     -0.2208
     96  CG2       15.1340   11.1730    1.6750 C.3   260  THR260      0.0379
     97  N         13.7980   11.0160   -1.9770 N.am  261  GLY261     -0.1939
     98  CA        12.5960   10.3170   -2.3840 C.3   261  GLY261      0.2014
     99  C         11.8020    9.8600   -1.1720 C.2   261  GLY261      0.2640
    100  O         11.7460   10.5530   -0.1550 O.2   261  GLY261     -0.2714
    101  N         11.1720    8.6780   -1.2130 N.am  262  SER262     -0.1935
    102  CA        11.0860    7.8000   -2.3660 C.3   262  SER262      0.2055
    103  C         10.4570    8.5100   -3.5650 C.2   262  SER262      0.2643
    104  O          9.8390    9.5900   -3.4310 O.2   262  SER262     -0.2714
    105  CB        10.2270    6.6100   -1.9930 C.3   262  SER262      0.2130
    106  OG         8.8710    7.0160   -1.8530 O.3   262  SER262     -0.2179
    107  N         10.5710    7.8920   -4.7300 N.am  263  ASP263     -0.1971
    108  CA         9.9470    8.4190   -5.9210 C.3   263  ASP263      0.1709
    109  C          8.4470    8.6160   -5.6490 C.2   263  ASP263      0.2293
    110  O          7.8930    9.6610   -6.0030 O.2   263  ASP263     -0.2864
    111  CB        10.1780    7.4530   -7.0810 C.3   263  ASP263      0.1436
    112  CG         9.7430    8.0080   -8.4080 C.2   263  ASP263      0.3671
    113  OD1        9.9710    9.1950   -8.6930 O.co2 263  ASP263     -0.2456
    114  OD2        9.1650    7.2230   -9.1830 O.co2 263  ASP263     -0.2456
    115  N          7.8740   11.7680   -3.6580 N.3   266  SER266     -0.1217
    116  CA         8.1230   12.9780   -4.4370 C.3   266  SER266      0.1889
    117  C          6.9800   13.2130   -5.4350 C.2   266  SER266      0.2288
    118  O          6.6030   14.3510   -5.6770 O.2   266  SER266     -0.2866
    119  CB         9.4300   12.8490   -5.1840 C.3   266  SER266      0.2089
    120  OG        10.4890   12.7690   -4.2620 O.3   266  SER266     -0.2183
    121  N          5.0650   16.8290   -5.7100 N.3   270  ARG270     -0.1245
    122  CA         4.9980   17.6360   -6.9230 C.3   270  ARG270      0.1563
    123  C          3.5530   17.9730   -7.2930 C.2   270  ARG270      0.2260
    124  O          3.2840   19.0850   -7.7980 O.2   270  ARG270     -0.2867
    125  CB         5.6760   16.9460   -8.1020 C.3   270  ARG270      0.0307
    126  CG         7.2260   16.8670   -7.9730 C.3   270  ARG270      0.0489
    127  CD         7.8770   16.6010   -9.3240 C.3   270  ARG270      0.2205
    128  NE         7.4340   15.3370   -9.8910 N.pl3 270  ARG270     -0.0865
    129  CZ         7.9770   14.1450   -9.6300 C.cat 270  ARG270      0.5346
    130  NH1        9.0280   14.0260   -8.8190 N.pl3 270  ARG270      0.1354
    131  NH2        7.4680   13.0620  -10.1960 N.pl3 270  ARG270      0.1354
@<TRIPOS>BOND
     1    81    80    1
     2   131   129    1
     3   128   129    2
     4   128   127    1
     5   129   130    1
     6    68    67   ar
     7    80    78   ar
     8    80    79   ar
     9   127   126    1
    10   114   112   ar
    11    78    76   ar
    12    69    67   ar
    13    67    66    1
    14   113   112   ar
    15   112   111    1
    16    79    77   ar
    17   125   126    1
    18   125   122    1
    19    53    51   ar
    20    76    75   ar
    21   124   123    2
    22    66    63    1
    23    63    64    1
    24    63    62    1
    25   123   122    1
    26    77    75   ar
    27   111   108    1
    28    75    74    1
    29   122   121    1
    30    51    50    1
    31    51    52   ar
    32    64    65    2
    33    50    47    1
    34   110   109    2
    35   108   109    1
    36   108   107    1
    37    60    59   ar
    38   118   117    2
    39    74    71    1
    40    88    87    1
    41   117   116    1
    42   119   116    1
    43   119   120    1
    44    46    47    1
    45    46    44   am
    46    47    48    1
    47    73    72    2
    48   107   103   am
    49    71    72    1
    50    71    70    1
    51    59    61   ar
    52    59    58    1
    53    72    82   am
    54   116   115    1
    55    87    89    1
    56    87    86    1
    57    10     9    1
    58    43    44    1
    59    43    42    1
    60    44    45    2
    61    83    82    1
    62    83    86    1
    63    83    84    1
    64    48    49    2
    65     1     2    1
    66    58    55    1
    67   103   104    2
    68   103   102    1
    69     6     7    1
    70     6     5    1
    71    55    54    1
    72    55    56    1
    73     7     8    1
    74    85    84    2
    75    84    90   am
    76     9     8    2
    77     9    11    1
    78     2     5    1
    79     2     3    1
    80    56    57    2
    81    98    97    1
    82    98    99    1
    83   102   105    1
    84   102   101    1
    85   105   106    1
    86    97    92   am
    87    90    91    1
    88     3     4    2
    89    13    12    1
    90    13    14    1
    91   101    99   am
    92    99   100    2
    93    92    91    1
    94    92    93    2
    95    31    30    1
    96    91    94    1
    97    32    30    1
    98    21    20    1
    99    16    14   am
   100    16    17    1
   101    14    15    2
   102    30    29    2
   103    20    17    1
   104    40    41    1
   105    40    39    1
   106    17    18    1
   107    94    95    1
   108    94    96    1
   109    39    38    1
   110    29    28    1
   111    28    27    1
   112    18    19    2
   113    38    37    1
   114    27    26    1
   115    37    34    1
   116    26    23    1
   117    22    23    1
   118    34    35    1
   119    34    33    1
   120    35    36    2
   121    23    24    1
   122    24    25    2
