@<TRIPOS>MOLECULE
tmp/3b18A00.pdb
 153 147 0 0 0
SMALL
GASTEIGER

@<TRIPOS>ATOM
      1  N         -6.8690   17.2140    0.8050 N.3    18  TYR18      -0.1241
      2  CA        -6.7800   18.6590    0.8500 C.3    18  TYR18       0.1605
      3  C         -7.4030   19.2370    2.1120 C.2    18  TYR18       0.2264
      4  O         -6.9550   20.2730    2.5920 O.2    18  TYR18      -0.2867
      5  CB        -7.4590   19.2900   -0.3690 C.3    18  TYR18       0.0534
      6  CG        -6.9700   18.7750   -1.6960 C.ar   18  TYR18      -0.0201
      7  CD1       -7.5880   17.6820   -2.3000 C.ar   18  TYR18      -0.0009
      8  CD2       -5.8950   19.3790   -2.3470 C.ar   18  TYR18      -0.0009
      9  CE1       -7.1700   17.2080   -3.5010 C.ar   18  TYR18       0.0417
     10  CE2       -5.4610   18.9060   -3.5640 C.ar   18  TYR18       0.0417
     11  CZ        -6.1100   17.8200   -4.1350 C.ar   18  TYR18       0.1957
     12  OH        -5.7000   17.3270   -5.3500 O.3    18  TYR18      -0.2866
     13  N         -8.8130   22.3990  -10.2690 N.3    67  PHE67      -0.1227
     14  CA        -9.0320   21.4240  -11.3370 C.3    67  PHE67       0.1736
     15  C         -8.9090   20.0220  -10.7840 C.2    67  PHE67       0.2595
     16  O         -9.7870   19.2040  -11.0020 O.2    67  PHE67      -0.2718
     17  CB        -8.0780   21.6770  -12.5150 C.3    67  PHE67       0.0547
     18  CG        -7.7820   20.4660  -13.3300 C.ar   67  PHE67      -0.0202
     19  CD1       -6.6780   19.6770  -13.0520 C.ar   67  PHE67      -0.0042
     20  CD2       -8.5990   20.1080  -14.3920 C.ar   67  PHE67      -0.0042
     21  CE1       -6.4020   18.5710  -13.8060 C.ar   67  PHE67      -0.0003
     22  CE2       -8.3190   18.9800  -15.1540 C.ar   67  PHE67      -0.0003
     23  CZ        -7.2210   18.2200  -14.8520 C.ar   67  PHE67      -0.0000
     24  N         -7.8340   19.7760  -10.0390 N.am   68  ASN68      -0.1974
     25  CA        -7.6040   18.5160   -9.3190 C.3    68  ASN68       0.1688
     26  C         -8.8090   18.1090   -8.4800 C.2    68  ASN68       0.2292
     27  O         -9.3360   17.0160   -8.6300 O.2    68  ASN68      -0.2864
     28  CB        -6.3790   18.6390   -8.4090 C.3    68  ASN68       0.1181
     29  CG        -5.0950   18.8520   -9.1820 C.2    68  ASN68       0.2629
     30  OD1       -4.0770   19.2460   -8.6150 O.2    68  ASN68      -0.2716
     31  ND2       -5.1300   18.5860  -10.4810 N.am   68  ASN68      -0.0877
     32  N        -11.8300   17.2710  -10.7170 N.3    71  ALA71      -0.1231
     33  CA       -11.6230   16.0710  -11.5100 C.3    71  ALA71       0.1694
     34  C        -11.7230   14.9230  -10.5400 C.2    71  ALA71       0.2592
     35  O        -12.4610   13.9800  -10.7660 O.2    71  ALA71      -0.2718
     36  CB       -10.2940   16.0850  -12.1490 C.3    71  ALA71       0.0304
     37  N        -10.9950   15.0350   -9.4330 N.am   72  TYR72      -0.1976
     38  CA       -11.0100   14.0260   -8.4170 C.3    72  TYR72       0.1639
     39  C        -12.4680   13.7530   -8.1110 C.2    72  TYR72       0.2290
     40  O        -12.9300   12.6330   -8.2960 O.2    72  TYR72      -0.2864
     41  CB       -10.2680   14.4960   -7.1560 C.3    72  TYR72       0.0560
     42  CG        -8.8150   14.0340   -7.0110 C.ar   72  TYR72      -0.0198
     43  CD1       -7.8700   14.8620   -6.3950 C.ar   72  TYR72      -0.0009
     44  CD2       -8.3920   12.7760   -7.4640 C.ar   72  TYR72      -0.0009
     45  CE1       -6.5450   14.4610   -6.2290 C.ar   72  TYR72       0.0417
     46  CE2       -7.0690   12.3580   -7.3090 C.ar   72  TYR72       0.0417
     47  CZ        -6.1390   13.2060   -6.6840 C.ar   72  TYR72       0.1957
     48  OH        -4.8080   12.8280   -6.5160 O.3    72  TYR72      -0.2866
     49  N        -14.9420   12.1740  -10.9660 N.3    75  PHE75      -0.1241
     50  CA       -14.7560   10.7690  -11.3290 C.3    75  PHE75       0.1605
     51  C        -15.2430    9.8050  -10.2420 C.2    75  PHE75       0.2264
     52  O        -15.5420    8.6390  -10.5400 O.2    75  PHE75      -0.2867
     53  CB       -13.3120   10.4740  -11.6930 C.3    75  PHE75       0.0534
     54  CG       -13.0310   10.6200  -13.1420 C.ar   75  PHE75      -0.0203
     55  CD1      -12.8640   11.8990  -13.7120 C.ar   75  PHE75      -0.0042
     56  CD2      -12.9400    9.4950  -13.9580 C.ar   75  PHE75      -0.0042
     57  CE1      -12.5990   12.0560  -15.0510 C.ar   75  PHE75      -0.0003
     58  CE2      -12.6730    9.6360  -15.3170 C.ar   75  PHE75      -0.0003
     59  CZ       -12.4810   10.9310  -15.8650 C.ar   75  PHE75      -0.0000
     60  N        -12.9740    1.8830  -16.5810 N.3    87  LEU87      -0.1245
     61  CA       -12.7240    1.8800  -15.1330 C.3    87  LEU87       0.1561
     62  C        -13.5560    0.8940  -14.3140 C.2    87  LEU87       0.2260
     63  O        -13.3540    0.7770  -13.1040 O.2    87  LEU87      -0.2867
     64  CB       -12.8790    3.2940  -14.5440 C.3    87  LEU87       0.0270
     65  CG       -11.7810    4.3080  -14.8680 C.3    87  LEU87       0.0019
     66  CD1      -12.0280    5.6430  -14.1440 C.3    87  LEU87       0.0001
     67  CD2      -10.3940    3.7350  -14.5500 C.3    87  LEU87       0.0001
     68  N        -12.6740   -1.0980  -10.8990 N.3    90  TRP90      -0.1241
     69  CA       -12.3980   -0.2960   -9.7280 C.3    90  TRP90       0.1605
     70  C        -13.6890   -0.1920   -8.9300 C.2    90  TRP90       0.2264
     71  O        -14.7520    0.1130   -9.4680 O.2    90  TRP90      -0.2867
     72  CB       -11.8600    1.0980  -10.1240 C.3    90  TRP90       0.0550
     73  CG       -10.3280    1.1930  -10.2500 C.ar   90  TRP90       0.0003
     74  CD1       -9.4380    0.1560  -10.2770 C.ar   90  TRP90       0.0946
     75  CD2       -9.5460    2.3880  -10.3700 C.ar   90  TRP90       0.0152
     76  NE1       -8.1570    0.6320  -10.3940 N.ar   90  TRP90      -0.2442
     77  CE2       -8.1940    1.9980  -10.4600 C.ar   90  TRP90       0.0810
     78  CE3       -9.8550    3.7540  -10.4110 C.ar   90  TRP90       0.0012
     79  CZ2       -7.1490    2.9190  -10.5990 C.ar   90  TRP90       0.0191
     80  CZ3       -8.7940    4.6810  -10.5460 C.ar   90  TRP90       0.0001
     81  CH2       -7.4640    4.2500  -10.6340 C.ar   90  TRP90       0.0015
     82  N        -10.3320    3.5240   -6.3440 N.3    95  TYR95      -0.1241
     83  CA       -10.1550    4.9130   -6.6820 C.3    95  TYR95       0.1605
     84  C         -9.4760    5.7060   -5.5740 C.2    95  TYR95       0.2264
     85  O         -8.4660    6.3500   -5.8250 O.2    95  TYR95      -0.2867
     86  CB       -11.5070    5.5220   -7.0470 C.3    95  TYR95       0.0534
     87  CG       -11.4350    6.9350   -7.5910 C.ar   95  TYR95      -0.0201
     88  CD1      -11.1040    7.1750   -8.9160 C.ar   95  TYR95      -0.0009
     89  CD2      -11.7200    8.0300   -6.7840 C.ar   95  TYR95      -0.0009
     90  CE1      -11.0490    8.4820   -9.4250 C.ar   95  TYR95       0.0417
     91  CE2      -11.6680    9.3250   -7.2780 C.ar   95  TYR95       0.0417
     92  CZ       -11.3350    9.5370   -8.5970 C.ar   95  TYR95       0.1957
     93  OH       -11.2890   10.8060   -9.0890 O.3    95  TYR95      -0.2866
     94  N         -3.6110    9.8920   -4.7240 N.3   100  LEU100     -0.1245
     95  CA        -2.3760   10.6540   -4.5660 C.3   100  LEU100      0.1561
     96  C         -1.2350   10.2030   -5.4900 C.2   100  LEU100      0.2260
     97  O         -0.7300   10.9820   -6.2970 O.2   100  LEU100     -0.2867
     98  CB        -1.9340   10.6360   -3.0860 C.3   100  LEU100      0.0270
     99  CG        -2.9830   11.0790   -2.0480 C.3   100  LEU100      0.0019
    100  CD1       -2.3790   11.2330   -0.6410 C.3   100  LEU100      0.0001
    101  CD2       -3.6890   12.3710   -2.4630 C.3   100  LEU100      0.0001
    102  N         -2.3190    9.2440   -9.9860 N.3   103  MET103     -0.1230
    103  CA        -3.0170   10.1420  -10.9280 C.3   103  MET103      0.1702
    104  C         -2.2210   11.4250  -11.1390 C.2   103  MET103      0.2592
    105  O         -1.9760   12.1800  -10.1930 O.2   103  MET103     -0.2718
    106  CB        -4.4580   10.3970  -10.4740 C.3   103  MET103      0.0401
    107  CG        -5.2310    9.0820  -10.2030 C.3   103  MET103      0.0596
    108  SD        -6.9570    9.2230   -9.6440 S.3   103  MET103     -0.1393
    109  CE        -7.3100    7.5670   -9.0480 C.3   103  MET103      0.0692
    110  N         -1.8150   11.6480  -12.3910 N.am  104  LEU104     -0.1966
    111  CA        -0.7730   12.6210  -12.7370 C.3   104  LEU104      0.1728
    112  C         -1.1640   13.5500  -13.8640 C.2   104  LEU104      0.2616
    113  O         -1.9270   13.1570  -14.7390 O.2   104  LEU104     -0.2715
    114  CB         0.4930   11.8810  -13.1950 C.3   104  LEU104      0.0311
    115  CG         1.1200   10.8650  -12.2290 C.3   104  LEU104      0.0022
    116  CD1        2.3400   10.1610  -12.8470 C.3   104  LEU104      0.0001
    117  CD2        1.4790   11.5400  -10.9070 C.3   104  LEU104      0.0001
    118  N         -0.6100   14.7660  -13.8580 N.am  105  ILE105     -0.1977
    119  CA        -0.7670   15.7120  -14.9610 C.3   105  ILE105      0.1596
    120  C          0.4100   15.5180  -15.9090 C.2   105  ILE105      0.2287
    121  O          1.5520   15.6810  -15.4940 O.2   105  ILE105     -0.2864
    122  CB        -0.8090   17.1820  -14.4470 C.3   105  ILE105      0.0276
    123  CG1       -2.1690   17.4880  -13.8040 C.3   105  ILE105      0.0022
    124  CG2       -0.5340   18.2020  -15.5900 C.3   105  ILE105      0.0022
    125  CD1       -2.0910   18.2640  -12.4950 C.3   105  ILE105      0.0001
    126  N         -4.4190    5.0950  -17.9840 N.3   140  LEU140     -0.1245
    127  CA        -5.5650    5.6890  -18.6590 C.3   140  LEU140      0.1561
    128  C         -5.2420    7.1510  -18.8900 C.2   140  LEU140      0.2260
    129  O         -5.0180    7.8880  -17.9420 O.2   140  LEU140     -0.2867
    130  CB        -6.8370    5.5510  -17.8160 C.3   140  LEU140      0.0270
    131  CG        -8.0170    6.4860  -18.0400 C.3   140  LEU140      0.0019
    132  CD1       -8.7030    6.3110  -19.3850 C.3   140  LEU140      0.0001
    133  CD2       -8.9760    6.2890  -16.9080 C.3   140  LEU140      0.0001
    134  N         -6.3190   10.8520  -20.0440 N.3   142  VAL142     -0.1245
    135  CA        -7.5650   11.5540  -19.7530 C.3   142  VAL142      0.1561
    136  C         -7.4060   12.9990  -20.2020 C.2   142  VAL142      0.2260
    137  O         -6.8870   13.8170  -19.4490 O.2   142  VAL142     -0.2867
    138  CB        -7.9130   11.4760  -18.2300 C.3   142  VAL142      0.0252
    139  CG1       -9.2190   12.2070  -17.9100 C.3   142  VAL142      0.0019
    140  CG2       -7.9990   10.0400  -17.7780 C.3   142  VAL142      0.0019
    141  N         -4.4120   14.1910  -18.1540 N.3   161  LEU161     -0.1245
    142  CA        -4.0120   13.3460  -17.0310 C.3   161  LEU161      0.1561
    143  C         -3.5750   11.9710  -17.4660 C.2   161  LEU161      0.2260
    144  O         -3.9120   11.5060  -18.5570 O.2   161  LEU161     -0.2867
    145  CB        -5.1450   13.1560  -16.0320 C.3   161  LEU161      0.0270
    146  CG        -5.8870   14.3980  -15.5870 C.3   161  LEU161      0.0019
    147  CD1       -7.0040   13.9240  -14.7320 C.3   161  LEU161      0.0001
    148  CD2       -4.9880   15.4010  -14.8440 C.3   161  LEU161      0.0001
    149  N         -3.6740    8.2880  -15.3550 N.3   163  ALA163     -0.1245
    150  CA        -4.0280    7.5740  -14.1410 C.3   163  ALA163      0.1562
    151  C         -3.3920    6.2030  -14.2180 C.2   163  ALA163      0.2260
    152  O         -3.6270    5.4510  -15.1830 O.2   163  ALA163     -0.2867
    153  CB        -5.5190    7.4660  -13.9720 C.3   163  ALA163      0.0290
@<TRIPOS>BOND
     1   136   135    1
     2   136   137    2
     3   134   135    1
     4   135   138    1
     5   132   131    1
     6   128   127    1
     7   128   129    2
     8   127   126    1
     9   127   130    1
    10   144   143    2
    11   138   139    1
    12   138   140    1
    13   141   142    1
    14   131   130    1
    15   131   133    1
    16   143   142    1
    17   142   145    1
    18    60    61    1
    19   145   146    1
    20   120   121    2
    21   120   119    1
    22    59    58   ar
    23    59    57   ar
    24   124   122    1
    25   146   148    1
    26   146   147    1
    27   149   150    1
    28    58    56   ar
    29   152   151    2
    30    22    23   ar
    31    22    20   ar
    32    61    64    1
    33    61    62    1
    34    57    55   ar
    35   119   122    1
    36   119   118    1
    37    65    67    1
    38    65    64    1
    39    65    66    1
    40    23    21   ar
    41   113   112    2
    42   122   123    1
    43    20    18   ar
    44    62    63    2
    45   151   150    1
    46   150   153    1
    47    56    54   ar
    48   112   118   am
    49   112   111    1
    50    21    19   ar
    51   123   125    1
    52    55    54   ar
    53    18    19   ar
    54    18    17    1
    55   114   111    1
    56   114   115    1
    57    54    53    1
    58   116   115    1
    59   111   110    1
    60    17    14    1
    61   110   104   am
    62   115   117    1
    63    36    33    1
    64    53    50    1
    65    33    32    1
    66    33    34    1
    67    14    15    1
    68    14    13    1
    69    50    49    1
    70    50    51    1
    71   104   103    1
    72   104   105    2
    73    16    15    2
    74   103   106    1
    75   103   102    1
    76    68    69    1
    77    15    24   am
    78    35    34    2
    79    81    79   ar
    80    81    80   ar
    81    79    77   ar
    82    80    78   ar
    83    52    51    2
    84    34    37   am
    85    31    29   am
    86   106   107    1
    87    77    76   ar
    88    77    75   ar
    89    78    75   ar
    90    76    74   ar
    91    75    73   ar
    92    74    73   ar
    93    73    72    1
    94   107   108    1
    95    72    69    1
    96    24    25    1
    97    69    70    1
    98   108   109    1
    99    71    70    2
   100    37    38    1
   101    90    88   ar
   102    90    92   ar
   103    25    26    1
   104    25    28    1
   105    29    30    2
   106    29    28    1
   107    93    92    1
   108    88    87   ar
   109    27    26    2
   110    92    91   ar
   111    38    39    1
   112    38    41    1
   113    40    39    2
   114    87    86    1
   115    87    89   ar
   116    44    46   ar
   117    44    42   ar
   118    46    47   ar
   119    91    89   ar
   120    41    42    1
   121    86    83    1
   122    42    43   ar
   123    47    48    1
   124    47    45   ar
   125    83    82    1
   126    83    84    1
   127    43    45   ar
   128    97    96    2
   129    85    84    2
   130    96    95    1
   131    12    11    1
   132    94    95    1
   133    95    98    1
   134    11    10   ar
   135    11     9   ar
   136    10     8   ar
   137     9     7   ar
   138    98    99    1
   139   101    99    1
   140     8     6   ar
   141     7     6   ar
   142    99   100    1
   143     6     5    1
   144     5     2    1
   145     1     2    1
   146     2     3    1
   147     3     4    2
