@<TRIPOS>MOLECULE
tmp/3b1cA00.pdb
 156 147 0 0 0
SMALL
GASTEIGER

@<TRIPOS>ATOM
      1  N          4.4600   61.7580   34.7410 N.3    34  ALA34      -0.1245
      2  CA         3.2120   61.9500   35.4350 C.3    34  ALA34       0.1562
      3  C          3.3060   63.0160   36.5280 C.2    34  ALA34       0.2260
      4  O          3.3540   62.7230   37.7150 O.2    34  ALA34      -0.2867
      5  CB         2.6770   60.6270   35.9980 C.3    34  ALA34       0.0290
      6  N          8.8280   58.9720   49.3010 N.3    92  GLY92      -0.1210
      7  CA         8.1530   58.6310   48.0610 C.3    92  GLY92       0.1956
      8  C          7.7270   57.1850   48.0180 C.2    92  GLY92       0.2612
      9  O          8.1620   56.3840   48.8280 O.2    92  GLY92      -0.2717
     10  N          6.8570   56.8720   47.0680 N.am   93  VAL93      -0.1965
     11  CA         6.3620   55.4970   46.8680 C.3    93  VAL93       0.1727
     12  C          7.4320   54.5850   46.2440 C.2    93  VAL93       0.2616
     13  O          7.5960   53.4300   46.6420 O.2    93  VAL93      -0.2715
     14  CB         5.0390   55.5040   46.0690 C.3    93  VAL93       0.0290
     15  CG1        4.6450   54.1020   45.6430 C.3    93  VAL93       0.0023
     16  CG2        3.9190   56.1960   46.8960 C.3    93  VAL93       0.0023
     17  N          8.1980   55.1160   45.3060 N.am   94  VAL94      -0.1964
     18  CA         9.3090   54.3570   44.7340 C.3    94  VAL94       0.1712
     19  C         10.3670   53.9990   45.8220 C.2    94  VAL94       0.2458
     20  O         10.7660   52.8440   45.9330 O.2    94  VAL94      -0.2730
     21  CB         9.8750   55.0790   43.4800 C.3    94  VAL94       0.0289
     22  CG1       11.1740   54.4320   43.0010 C.3    94  VAL94       0.0023
     23  CG2        8.8330   55.0070   42.3510 C.3    94  VAL94       0.0023
     24  N         10.7980   54.9690   46.6440 N.am   95  PRO95      -0.2727
     25  CA        11.5010   54.5880   47.8670 C.3    95  PRO95       0.1402
     26  C         10.8740   53.4380   48.6750 C.2    95  PRO95       0.2269
     27  O         11.5870   52.5080   49.0640 O.2    95  PRO95      -0.2865
     28  CB        11.4970   55.8940   48.6790 C.3    95  PRO95       0.0296
     29  CG        11.5890   56.9490   47.6620 C.3    95  PRO95       0.0237
     30  CD        10.8090   56.4320   46.4620 C.3    95  PRO95       0.0939
     31  N          8.8950   51.0910   47.6850 N.3    97  ILE97      -0.1245
     32  CA         9.0250   49.8490   46.9230 C.3    97  ILE97       0.1561
     33  C         10.3840   49.1570   47.1650 C.2    97  ILE97       0.2260
     34  O         10.4410   47.9550   47.3610 O.2    97  ILE97      -0.2867
     35  CB         8.7710   50.1110   45.4090 C.3    97  ILE97       0.0252
     36  CG1        7.2980   50.4430   45.2240 C.3    97  ILE97       0.0019
     37  CG2        9.2010   48.8970   44.5280 C.3    97  ILE97       0.0019
     38  CD1        6.9240   51.0180   43.8640 C.3    97  ILE97       0.0001
     39  N          4.5720   50.2320   35.2910 N.3   118  TYR118     -0.1241
     40  CA         5.4470   51.2780   35.7990 C.3   118  TYR118      0.1605
     41  C          6.9090   50.8250   35.8670 C.2   118  TYR118      0.2264
     42  O          7.2230   49.9070   36.6110 O.2   118  TYR118     -0.2867
     43  CB         4.9420   51.7210   37.1790 C.3   118  TYR118      0.0534
     44  CG         5.5950   52.9810   37.7020 C.ar  118  TYR118     -0.0201
     45  CD1        5.6660   54.1260   36.9330 C.ar  118  TYR118     -0.0009
     46  CD2        6.1390   53.0080   38.9770 C.ar  118  TYR118     -0.0009
     47  CE1        6.2740   55.2940   37.4310 C.ar  118  TYR118      0.0417
     48  CE2        6.7360   54.1320   39.4770 C.ar  118  TYR118      0.0417
     49  CZ         6.8050   55.2800   38.7030 C.ar  118  TYR118      0.1957
     50  OH         7.4100   56.3830   39.2510 O.3   118  TYR118     -0.2866
     51  N          9.1240   49.4700   38.8570 N.3   121  PHE121     -0.1241
     52  CA         8.8270   48.1390   39.3850 C.3   121  PHE121      0.1605
     53  C          9.9590   47.1700   38.9850 C.2   121  PHE121      0.2264
     54  O         10.6610   46.6730   39.8310 O.2   121  PHE121     -0.2867
     55  CB         7.4790   47.6300   38.8620 C.3   121  PHE121      0.0534
     56  CG         6.2670   48.0890   39.6630 C.ar  121  PHE121     -0.0203
     57  CD1        6.1940   49.3350   40.2370 C.ar  121  PHE121     -0.0042
     58  CD2        5.1980   47.2600   39.7870 C.ar  121  PHE121     -0.0042
     59  CE1        5.0500   49.7300   40.9410 C.ar  121  PHE121     -0.0003
     60  CE2        4.0840   47.6280   40.4740 C.ar  121  PHE121     -0.0003
     61  CZ         4.0070   48.8500   41.0660 C.ar  121  PHE121     -0.0000
     62  N          0.0170   46.8370   41.0910 N.3   166  CYS166     -0.1235
     63  CA        -0.3340   48.2090   40.7550 C.3   166  CYS166      0.1677
     64  C         -1.8470   48.3250   40.6110 C.2   166  CYS166      0.2270
     65  O         -2.4590   47.7110   39.7230 O.2   166  CYS166     -0.2867
     66  CB         0.3550   48.5970   39.4420 C.3   166  CYS166      0.0956
     67  SG         0.5300   50.3690   39.1900 S.3   166  CYS166     -0.0801
     68  N         -0.9300   50.9830   36.0830 N.3   170  ASN170     -0.1240
     69  CA        -0.2820   51.9420   35.2150 C.3   170  ASN170      0.1653
     70  C          0.8240   51.1620   34.4990 C.2   170  ASN170      0.2266
     71  O          1.7000   50.5860   35.1660 O.2   170  ASN170     -0.2867
     72  CB         0.2800   53.0960   36.0550 C.3   170  ASN170      0.1155
     73  CG         1.0930   54.0810   35.2490 C.2   170  ASN170      0.2627
     74  OD1        0.7590   54.4060   34.0930 O.2   170  ASN170     -0.2716
     75  ND2        2.1570   54.6010   35.8690 N.am  170  ASN170     -0.0877
     76  N          0.5770   49.0930   45.3150 N.3   198  ASP198     -0.1239
     77  CA         0.8640   50.4760   44.9590 C.3   198  ASP198      0.1674
     78  C         -0.4340   51.1130   44.4580 C.2   198  ASP198      0.2266
     79  O         -0.8510   50.9070   43.3070 O.2   198  ASP198     -0.2867
     80  CB         1.9620   50.5470   43.8960 C.3   198  ASP198      0.1410
     81  CG         2.3130   51.9580   43.4820 C.2   198  ASP198      0.3668
     82  OD1        1.5130   52.9010   43.7590 O.co2 198  ASP198     -0.2456
     83  OD2        3.3830   52.1240   42.7970 O.co2 198  ASP198     -0.2456
     84  N         -1.0370   54.4770   44.3730 N.3   200  ILE200     -0.1231
     85  CA        -0.7690   55.8950   44.2700 C.3   200  ILE200      0.1692
     86  C         -1.8060   56.6210   43.4040 C.2   200  ILE200      0.2592
     87  O         -2.0490   57.8220   43.6190 O.2   200  ILE200     -0.2718
     88  CB         0.6960   56.1720   43.8180 C.3   200  ILE200      0.0266
     89  CG1        1.1390   57.5580   44.3260 C.3   200  ILE200      0.0019
     90  CG2        0.8970   55.9700   42.2810 C.3   200  ILE200      0.0020
     91  CD1        2.4780   57.9720   43.8350 C.3   200  ILE200      0.0001
     92  N         -2.4060   55.9050   42.4320 N.am  201  HIS201     -0.1976
     93  CA        -3.4360   56.4970   41.5300 C.3   201  HIS201      0.1656
     94  C         -4.8710   56.3300   42.0560 C.2   201  HIS201      0.2291
     95  O         -5.8280   56.5930   41.3180 O.2   201  HIS201     -0.2864
     96  CB        -3.3220   55.9120   40.0920 C.3   201  HIS201      0.0771
     97  CG        -2.0040   56.1590   39.4210 C.ar  201  HIS201      0.0820
     98  ND1       -1.7460   57.2770   38.6480 N.ar  201  HIS201     -0.2267
     99  CD2       -0.8690   55.4230   39.4020 C.ar  201  HIS201      0.1154
    100  CE1       -0.5080   57.2100   38.1890 C.ar  201  HIS201      0.1986
    101  NE2        0.0410   56.0840   38.6210 N.ar  201  HIS201     -0.2212
    102  N          0.5500   62.8900   46.3710 N.3   232  THR232     -0.1203
    103  CA         1.2890   63.5580   45.3040 C.3   232  THR232      0.1994
    104  C          0.7140   63.4070   43.8770 C.2   232  THR232      0.2617
    105  O          0.6910   64.3750   43.1450 O.2   232  THR232     -0.2717
    106  CB         2.7920   63.2290   45.2780 C.3   232  THR232      0.1784
    107  OG1        2.9700   61.8560   44.9170 O.3   232  THR232     -0.2211
    108  CG2        3.4870   63.5910   46.6210 C.3   232  THR232      0.0376
    109  N          0.3010   62.2130   43.4610 N.am  233  LYS233     -0.1979
    110  CA        -0.2550   62.0650   42.1180 C.3   233  LYS233      0.1596
    111  C         -1.5990   62.7500   42.0800 C.2   233  LYS233      0.2287
    112  O         -1.9140   63.4470   41.1210 O.2   233  LYS233     -0.2864
    113  CB        -0.4310   60.6020   41.6560 C.3   233  LYS233      0.0298
    114  CG         0.7920   59.9090   41.1890 C.3   233  LYS233      0.0038
    115  CD         1.3200   60.4010   39.8530 C.3   233  LYS233      0.0206
    116  CE         2.8090   60.0160   39.7090 C.3   233  LYS233      0.1093
    117  NZ         2.9680   58.6140   39.3670 N.3   233  LYS233     -0.1314
    118  N          4.2840   66.2900   43.6920 N.3   238  ALA238     -0.1245
    119  CA         5.3680   65.3170   43.7200 C.3   238  ALA238      0.1562
    120  C          6.6680   65.9030   44.2370 C.2   238  ALA238      0.2260
    121  O          7.4080   65.2020   44.8650 O.2   238  ALA238     -0.2867
    122  CB         5.5790   64.6810   42.3380 C.3   238  ALA238      0.0290
    123  N          7.6040   65.6720   48.2300 N.3   241  LYS241     -0.1231
    124  CA         8.2270   64.4360   48.7310 C.3   241  LYS241      0.1693
    125  C          7.6530   63.8950   50.0460 C.2   241  LYS241      0.2592
    126  O          8.2840   63.9390   51.1140 O.2   241  LYS241     -0.2718
    127  CB         9.7560   64.5750   48.7900 C.3   241  LYS241      0.0285
    128  CG        10.3840   64.8050   47.4110 C.3   241  LYS241      0.0035
    129  CD        10.2260   63.5530   46.5420 C.3   241  LYS241      0.0206
    130  CE        10.8120   63.6560   45.1760 C.3   241  LYS241      0.1093
    131  NZ        10.6180   62.3640   44.4780 N.3   241  LYS241     -0.1314
    132  N          6.4340   63.3990   49.9530 N.am  242  ASN242     -0.1960
    133  CA         5.8920   62.5870   51.0200 C.3   242  ASN242      0.1819
    134  C          4.8890   61.5830   50.4740 C.2   242  ASN242      0.2622
    135  O          4.2480   61.8040   49.4560 O.2   242  ASN242     -0.2715
    136  CB         5.2870   63.4690   52.1060 C.3   242  ASN242      0.1195
    137  CG         4.9970   62.7130   53.4350 C.2   242  ASN242      0.2630
    138  OD1        5.5960   61.6780   53.7610 O.2   242  ASN242     -0.2716
    139  ND2        4.0940   63.2750   54.2140 N.am  242  ASN242     -0.0877
    140  N          4.7480   60.4940   51.1900 N.am  243  SER243     -0.1950
    141  CA         3.9030   59.3710   50.8290 C.3   243  SER243      0.1924
    142  C          3.7630   58.4790   52.0600 C.2   243  SER243      0.2314
    143  O          4.3510   58.7390   53.1150 O.2   243  SER243     -0.2863
    144  CB         4.4890   58.5760   49.6670 C.3   243  SER243      0.2116
    145  OG         5.5960   57.7790   50.0600 O.3   243  SER243     -0.2180
    146  N          2.7950   56.1150   26.0800 N.3   364  ARG364     -0.1245
    147  CA         1.8430   56.6050   27.0930 C.3   364  ARG364      0.1563
    148  C          1.7100   58.1310   27.0380 C.2   364  ARG364      0.2260
    149  O          2.7310   58.8690   27.1100 O.2   364  ARG364     -0.2867
    150  CB         2.2880   56.2010   28.5060 C.3   364  ARG364      0.0307
    151  CG         1.1490   56.1290   29.5320 C.3   364  ARG364      0.0489
    152  CD         1.6870   56.0320   30.9540 C.3   364  ARG364      0.2205
    153  NE         2.4370   57.2180   31.3550 N.pl3 364  ARG364     -0.0865
    154  CZ         3.0940   57.3620   32.5090 C.cat 364  ARG364      0.5346
    155  NH1        3.0910   56.4060   33.4370 N.pl3 364  ARG364      0.1354
    156  NH2        3.7290   58.4870   32.7490 N.pl3 364  ARG364      0.1354
@<TRIPOS>BOND
     1   146   147    1
     2   148   147    1
     3   148   149    2
     4   147   150    1
     5   150   151    1
     6   151   152    1
     7   152   153    1
     8   153   154    2
     9   154   156    1
    10   154   155    1
    11    74    73    2
    12    70    71    2
    13    70    69    1
    14     1     2    1
    15    69    72    1
    16    69    68    1
    17    73    75   am
    18    73    72    1
    19    39    40    1
    20     2     5    1
    21     2     3    1
    22    40    41    1
    23    40    43    1
    24    41    42    2
    25     3     4    2
    26    45    47   ar
    27    45    44   ar
    28    43    44    1
    29    47    49   ar
    30    44    46   ar
    31   100   101   ar
    32   100    98   ar
    33   101    99   ar
    34    98    97   ar
    35    49    50    1
    36    49    48   ar
    37    51    52    1
    38    55    52    1
    39    55    56    1
    40    46    48   ar
    41    53    52    1
    42    53    54    2
    43    67    66    1
    44   117   116    1
    45    99    97   ar
    46    97    96    1
    47    66    63    1
    48    56    58   ar
    49    56    57   ar
    50   116   115    1
    51    65    64    2
    52    58    60   ar
    53   115   114    1
    54    96    93    1
    55    57    59   ar
    56    60    61   ar
    57    64    63    1
    58    63    62    1
    59    59    61   ar
    60   112   111    2
    61   114   113    1
    62    95    94    2
    63    93    94    1
    64    93    92    1
    65   113   110    1
    66   111   110    1
    67   110   109    1
    68    90    88    1
    69   122   119    1
    70    23    21    1
    71    92    86   am
    72    83    81   ar
    73    22    21    1
    74   105   104    2
    75    79    78    2
    76    86    87    2
    77    86    85    1
    78   109   104   am
    79    21    18    1
    80    81    82   ar
    81    81    80    1
    82   118   119    1
    83   119   120    1
    84    88    85    1
    85    88    89    1
    86    91    89    1
    87    38    36    1
    88   104   103    1
    89    80    77    1
    90   120   121    2
    91    85    84    1
    92    78    77    1
    93   131   130    1
    94    37    35    1
    95    18    17    1
    96    18    19    1
    97   107   106    1
    98    77    76    1
    99   130   129    1
   100    36    35    1
   101   106   103    1
   102   106   108    1
   103   103   102    1
   104    17    12   am
   105    35    32    1
   106    15    14    1
   107    19    20    2
   108    19    24   am
   109    14    11    1
   110    14    16    1
   111    12    13    2
   112    12    11    1
   113    30    24    1
   114    30    29    1
   115   129   128    1
   116    24    25    1
   117    11    10    1
   118    32    33    1
   119    32    31    1
   120    10     8   am
   121    33    34    2
   122   128   127    1
   123    29    28    1
   124    25    26    1
   125    25    28    1
   126     8     7    1
   127     8     9    2
   128     7     6    1
   129   123   124    1
   130    26    27    2
   131   124   127    1
   132   124   125    1
   133   135   134    2
   134   144   145    1
   135   144   141    1
   136   132   125   am
   137   132   133    1
   138   125   126    2
   139   134   133    1
   140   134   140   am
   141   141   140    1
   142   141   142    1
   143   133   136    1
   144   142   143    2
   145   136   137    1
   146   137   138    2
   147   137   139   am
