@<TRIPOS>MOLECULE
tmp/3b1eB00.pdb
 96 94 0 0 0
SMALL
GASTEIGER

@<TRIPOS>ATOM
      1  N         10.7930   68.9560   66.6510 N.3    17  TYR17      -0.1241
      2  CA        11.4070   68.0680   67.6060 C.3    17  TYR17       0.1605
      3  C         11.8880   68.8180   68.8480 C.2    17  TYR17       0.2264
      4  O         11.6650   68.3520   69.9770 O.2    17  TYR17      -0.2867
      5  CB        12.5910   67.3280   66.9860 C.3    17  TYR17       0.0534
      6  CG        12.1530   66.0400   66.3210 C.ar   17  TYR17      -0.0201
      7  CD1       11.7480   64.9610   67.0930 C.ar   17  TYR17      -0.0009
      8  CD2       12.0930   65.9260   64.9350 C.ar   17  TYR17      -0.0009
      9  CE1       11.3350   63.7850   66.5110 C.ar   17  TYR17       0.0417
     10  CE2       11.6950   64.7350   64.3370 C.ar   17  TYR17       0.0417
     11  CZ        11.3190   63.6710   65.1410 C.ar   17  TYR17       0.1957
     12  OH        10.8860   62.4810   64.5930 O.3    17  TYR17      -0.2866
     13  N         18.8890   70.8530   73.3060 N.3    32  TRP32      -0.1227
     14  CA        19.4060   69.5250   72.9990 C.3    32  TRP32       0.1737
     15  C         19.7430   69.4010   71.5120 C.2    32  TRP32       0.2595
     16  O         20.8480   69.7450   71.1100 O.2    32  TRP32      -0.2718
     17  CB        18.4930   68.4220   73.5590 C.3    32  TRP32       0.0564
     18  CG        17.1130   68.4080   73.0280 C.ar   32  TRP32       0.0003
     19  CD1       16.1350   69.3320   73.2110 C.ar   32  TRP32       0.0946
     20  CD2       16.5590   67.3820   72.2060 C.ar   32  TRP32       0.0152
     21  NE1       14.9990   68.9520   72.5370 N.ar   32  TRP32      -0.2442
     22  CE2       15.2350   67.7510   71.9120 C.ar   32  TRP32       0.0810
     23  CE3       17.0670   66.1860   71.6740 C.ar   32  TRP32       0.0012
     24  CZ2       14.4050   66.9630   71.1040 C.ar   32  TRP32       0.0191
     25  CZ3       16.2550   65.4200   70.8670 C.ar   32  TRP32       0.0001
     26  CH2       14.9410   65.8090   70.5920 C.ar   32  TRP32       0.0015
     27  N         18.7940   68.9490   70.7010 N.am   33  ILE33      -0.1980
     28  CA        18.9620   68.7560   69.2780 C.3    33  ILE33       0.1595
     29  C         19.5130   69.9910   68.5760 C.2    33  ILE33       0.2287
     30  O         19.1130   71.1360   68.8950 O.2    33  ILE33      -0.2864
     31  CB        17.6070   68.3510   68.6740 C.3    33  ILE33       0.0276
     32  CG1       17.7580   67.9040   67.2080 C.3    33  ILE33       0.0022
     33  CG2       16.5590   69.5090   68.8210 C.3    33  ILE33       0.0022
     34  CD1       16.4940   67.2970   66.6480 C.3    33  ILE33       0.0001
     35  N         22.7640   61.8340   57.3510 N.3    94  VAL94      -0.1231
     36  CA        22.5400   60.5410   57.9930 C.3    94  VAL94       0.1678
     37  C         22.1060   59.4830   56.9600 C.2    94  VAL94       0.2434
     38  O         22.6650   58.3950   56.9230 O.2    94  VAL94      -0.2733
     39  CB        21.6010   60.6830   59.2270 C.3    94  VAL94       0.0265
     40  CG1       21.0920   59.3010   59.7230 C.3    94  VAL94       0.0020
     41  CG2       22.3740   61.4160   60.3470 C.3    94  VAL94       0.0020
     42  N         21.1430   59.8080   56.0790 N.am   95  PRO95      -0.2729
     43  CA        20.9300   58.9740   54.8930 C.3    95  PRO95       0.1401
     44  C         22.2270   58.5540   54.1650 C.2    95  PRO95       0.2269
     45  O         22.4670   57.3540   53.9290 O.2    95  PRO95      -0.2865
     46  CB        20.0090   59.8350   54.0270 C.3    95  PRO95       0.0296
     47  CG        19.1910   60.5990   55.0500 C.3    95  PRO95       0.0237
     48  CD        20.1370   60.8640   56.2020 C.3    95  PRO95       0.0939
     49  N         28.2940   61.3190   67.5970 N.3   118  TYR118     -0.1241
     50  CA        26.8810   61.4380   67.1870 C.3   118  TYR118      0.1605
     51  C         26.2190   60.0700   67.0180 C.2   118  TYR118      0.2264
     52  O         26.7040   59.2650   66.2330 O.2   118  TYR118     -0.2867
     53  CB        26.8690   62.2030   65.8790 C.3   118  TYR118      0.0534
     54  CG        25.5100   62.5080   65.3180 C.ar  118  TYR118     -0.0201
     55  CD1       24.5360   63.1240   66.0960 C.ar  118  TYR118     -0.0009
     56  CD2       25.2250   62.2350   63.9710 C.ar  118  TYR118     -0.0009
     57  CE1       23.2740   63.4040   65.5620 C.ar  118  TYR118      0.0417
     58  CE2       23.9760   62.5370   63.4290 C.ar  118  TYR118      0.0417
     59  CZ        23.0150   63.1050   64.2160 C.ar  118  TYR118      0.1957
     60  OH        21.7740   63.4110   63.6710 O.3   118  TYR118     -0.2866
     61  N         23.6900   58.3550   65.5690 N.3   120  PRO120     -0.2116
     62  CA        23.4990   57.6660   64.3010 C.3   120  PRO120      0.1372
     63  C         24.7420   56.9710   63.6700 C.2   120  PRO120      0.2244
     64  O         24.5760   56.0610   62.8620 O.2   120  PRO120     -0.2868
     65  CB        22.9510   58.7750   63.4060 C.3   120  PRO120      0.0268
     66  CG        22.1810   59.6110   64.3420 C.3   120  PRO120      0.0207
     67  CD        23.0870   59.7000   65.5400 C.3   120  PRO120      0.0892
     68  N         24.7220   53.5470   65.4250 N.3   123  ARG123     -0.1245
     69  CA        23.4690   52.8900   65.0570 C.3   123  ARG123      0.1563
     70  C         23.5070   52.3870   63.6120 C.2   123  ARG123      0.2260
     71  O         23.1350   51.2430   63.3460 O.2   123  ARG123     -0.2867
     72  CB        22.2820   53.8350   65.2240 C.3   123  ARG123      0.0307
     73  CG        20.9510   53.1360   64.9740 C.3   123  ARG123      0.0489
     74  CD        19.8260   54.1300   64.8840 C.3   123  ARG123      0.2205
     75  NE        19.9250   54.8910   63.6330 N.pl3 123  ARG123     -0.0865
     76  CZ        19.6670   56.1910   63.5110 C.cat 123  ARG123      0.5346
     77  NH1       19.3040   56.9200   64.5570 N.pl3 123  ARG123      0.1354
     78  NH2       19.7710   56.7710   62.3260 N.pl3 123  ARG123      0.1354
     79  N         23.0180   72.5960   58.8210 N.3   233  LYS233     -0.1245
     80  CA        23.4780   72.9850   60.1660 C.3   233  LYS233      0.1561
     81  C         23.9390   74.4310   60.1660 C.2   233  LYS233      0.2260
     82  O         23.6250   75.1910   61.0740 O.2   233  LYS233     -0.2867
     83  CB        24.6290   72.1000   60.6770 C.3   233  LYS233      0.0271
     84  CG        24.2480   70.7400   61.0510 C.3   233  LYS233      0.0035
     85  CD        23.2100   70.7500   62.1580 C.3   233  LYS233      0.0206
     86  CE        22.6280   69.4230   62.3320 C.3   233  LYS233      0.1093
     87  NZ        21.1920   69.4410   62.5610 N.3   233  LYS233     -0.1314
     88  N         15.7110   69.2880   54.1990 N.3   241  LYS241     -0.1245
     89  CA        16.1490   67.9680   53.7220 C.3   241  LYS241      0.1561
     90  C         16.9270   67.9810   52.4030 C.2   241  LYS241      0.2260
     91  O         16.4820   67.4870   51.3640 O.2   241  LYS241     -0.2867
     92  CB        14.9580   66.9900   53.6640 C.3   241  LYS241      0.0271
     93  CG        14.3790   66.6670   55.0100 C.3   241  LYS241      0.0035
     94  CD        15.3920   65.9180   55.8690 C.3   241  LYS241      0.0206
     95  CE        14.8680   65.5580   57.2360 C.3   241  LYS241      0.1093
     96  NZ        15.9210   64.8140   57.9950 N.3   241  LYS241     -0.1314
@<TRIPOS>BOND
     1    91    90    2
     2    90    89    1
     3    92    89    1
     4    92    93    1
     5    89    88    1
     6    45    44    2
     7    46    43    1
     8    46    47    1
     9    44    43    1
    10    43    42    1
    11    93    94    1
    12    47    48    1
    13    94    95    1
    14    42    48    1
    15    42    37   am
    16    38    37    2
    17    37    36    1
    18    95    96    1
    19    35    36    1
    20    36    39    1
    21    79    80    1
    22    39    40    1
    23    39    41    1
    24    81    80    1
    25    81    82    2
    26    80    83    1
    27    83    84    1
    28    84    85    1
    29    85    86    1
    30    78    76    1
    31    86    87    1
    32    64    63    2
    33    71    70    2
    34    65    62    1
    35    65    66    1
    36    58    56   ar
    37    58    59   ar
    38    76    75    2
    39    76    77    1
    40    70    69    1
    41    75    74    1
    42    63    62    1
    43    60    59    1
    44    56    54   ar
    45    59    57   ar
    46    62    61    1
    47    10     8   ar
    48    10    11   ar
    49    66    67    1
    50    12    11    1
    51    74    73    1
    52     8     6   ar
    53    73    72    1
    54    69    72    1
    55    69    68    1
    56    11     9   ar
    57    54    53    1
    58    54    55   ar
    59    67    61    1
    60    57    55   ar
    61    53    50    1
    62    52    51    2
    63     6     5    1
    64     6     7   ar
    65     9     7   ar
    66    34    32    1
    67     1     2    1
    68     5     2    1
    69    51    50    1
    70    50    49    1
    71    32    31    1
    72     2     3    1
    73    29    30    2
    74    29    28    1
    75    31    33    1
    76    31    28    1
    77     3     4    2
    78    28    27    1
    79    26    25   ar
    80    26    24   ar
    81    27    15   am
    82    25    23   ar
    83    24    22   ar
    84    16    15    2
    85    15    14    1
    86    23    20   ar
    87    22    20   ar
    88    22    21   ar
    89    20    18   ar
    90    21    19   ar
    91    14    13    1
    92    14    17    1
    93    18    19   ar
    94    18    17    1
