@<TRIPOS>MOLECULE
tmp/3b1eB01.pdb
 190 179 0 0 0
SMALL
GASTEIGER

@<TRIPOS>ATOM
      1  N         18.7940   68.9490   70.7010 N.3    33  ILE33      -0.1231
      2  CA        18.9620   68.7560   69.2780 C.3    33  ILE33       0.1692
      3  C         19.5130   69.9910   68.5760 C.2    33  ILE33       0.2591
      4  O         19.1130   71.1360   68.8950 O.2    33  ILE33      -0.2718
      5  CB        17.6070   68.3510   68.6740 C.3    33  ILE33       0.0266
      6  CG1       17.7580   67.9040   67.2080 C.3    33  ILE33       0.0019
      7  CG2       16.5590   69.5090   68.8210 C.3    33  ILE33       0.0020
      8  CD1       16.4940   67.2970   66.6480 C.3    33  ILE33       0.0001
      9  N         20.3970   69.7560   67.6000 N.am   34  ALA34      -0.1980
     10  CA        21.0670   70.8200   66.8540 C.3    34  ALA34       0.1597
     11  C         20.1970   71.4680   65.7440 C.2    34  ALA34       0.2287
     12  O         20.4380   71.2940   64.5310 O.2    34  ALA34      -0.2864
     13  CB        22.4190   70.3140   66.2800 C.3    34  ALA34       0.0319
     14  N         19.7130   63.8180   53.1920 N.3    92  GLY92      -0.1210
     15  CA        20.4090   64.1470   54.4330 C.3    92  GLY92       0.1956
     16  C         21.7470   63.4330   54.5650 C.2    92  GLY92       0.2612
     17  O         22.0460   62.4490   53.8770 O.2    92  GLY92      -0.2717
     18  N         22.5530   63.9280   55.4880 N.am   93  VAL93      -0.1965
     19  CA        23.8530   63.3480   55.7780 C.3    93  VAL93       0.1727
     20  C         23.7170   61.9700   56.4320 C.2    93  VAL93       0.2616
     21  O         24.4630   61.0410   56.1200 O.2    93  VAL93      -0.2715
     22  CB        24.6910   64.3030   56.6410 C.3    93  VAL93       0.0290
     23  CG1       25.9880   63.6140   57.1150 C.3    93  VAL93       0.0023
     24  CG2       24.9910   65.5870   55.8080 C.3    93  VAL93       0.0023
     25  N         22.7640   61.8340   57.3510 N.am   94  VAL94      -0.1964
     26  CA        22.5400   60.5410   57.9930 C.3    94  VAL94       0.1712
     27  C         22.1060   59.4830   56.9600 C.2    94  VAL94       0.2458
     28  O         22.6650   58.3950   56.9230 O.2    94  VAL94      -0.2730
     29  CB        21.6010   60.6830   59.2270 C.3    94  VAL94       0.0289
     30  CG1       21.0920   59.3010   59.7230 C.3    94  VAL94       0.0023
     31  CG2       22.3740   61.4160   60.3470 C.3    94  VAL94       0.0023
     32  N         21.1430   59.8080   56.0790 N.am   95  PRO95      -0.2727
     33  CA        20.9300   58.9740   54.8930 C.3    95  PRO95       0.1402
     34  C         22.2270   58.5540   54.1650 C.2    95  PRO95       0.2269
     35  O         22.4670   57.3540   53.9290 O.2    95  PRO95      -0.2865
     36  CB        20.0090   59.8350   54.0270 C.3    95  PRO95       0.0296
     37  CG        19.1910   60.5990   55.0500 C.3    95  PRO95       0.0237
     38  CD        20.1370   60.8640   56.2020 C.3    95  PRO95       0.0939
     39  N         25.2330   58.3810   55.1830 N.3    97  ILE97      -0.1245
     40  CA        26.0520   57.4690   55.9780 C.3    97  ILE97       0.1561
     41  C         25.6120   56.0100   55.7940 C.2    97  ILE97       0.2260
     42  O         26.4380   55.1180   55.6160 O.2    97  ILE97      -0.2867
     43  CB        26.0720   57.8870   57.4720 C.3    97  ILE97       0.0252
     44  CG1       26.8920   59.1800   57.6460 C.3    97  ILE97       0.0019
     45  CG2       26.6100   56.7280   58.3230 C.3    97  ILE97       0.0019
     46  CD1       26.7780   59.8530   59.0440 C.3    97  ILE97       0.0001
     47  N         28.2940   61.3190   67.5970 N.3   118  TYR118     -0.1241
     48  CA        26.8810   61.4380   67.1870 C.3   118  TYR118      0.1605
     49  C         26.2190   60.0700   67.0180 C.2   118  TYR118      0.2264
     50  O         26.7040   59.2650   66.2330 O.2   118  TYR118     -0.2867
     51  CB        26.8690   62.2030   65.8790 C.3   118  TYR118      0.0534
     52  CG        25.5100   62.5080   65.3180 C.ar  118  TYR118     -0.0201
     53  CD1       24.5360   63.1240   66.0960 C.ar  118  TYR118     -0.0009
     54  CD2       25.2250   62.2350   63.9710 C.ar  118  TYR118     -0.0009
     55  CE1       23.2740   63.4040   65.5620 C.ar  118  TYR118      0.0417
     56  CE2       23.9760   62.5370   63.4290 C.ar  118  TYR118      0.0417
     57  CZ        23.0150   63.1050   64.2160 C.ar  118  TYR118      0.1957
     58  OH        21.7740   63.4110   63.6710 O.3   118  TYR118     -0.2866
     59  N         25.9610   57.3850   64.0250 N.3   121  PHE121     -0.1241
     60  CA        27.1750   56.6600   63.5890 C.3   121  PHE121      0.1605
     61  C         27.1450   55.1920   64.0270 C.2   121  PHE121      0.2264
     62  O         27.1420   54.2820   63.2010 O.2   121  PHE121     -0.2867
     63  CB        28.4560   57.3390   64.1190 C.3   121  PHE121      0.0534
     64  CG        28.9340   58.5190   63.3010 C.ar  121  PHE121     -0.0203
     65  CD1       28.0390   59.4670   62.7930 C.ar  121  PHE121     -0.0042
     66  CD2       30.2960   58.7110   63.0750 C.ar  121  PHE121     -0.0042
     67  CE1       28.5040   60.5660   62.0640 C.ar  121  PHE121     -0.0003
     68  CE2       30.7580   59.8030   62.3590 C.ar  121  PHE121     -0.0003
     69  CZ        29.8600   60.7350   61.8540 C.ar  121  PHE121     -0.0000
     70  N         34.2450   62.1480   61.9040 N.3   166  CYS166     -0.1235
     71  CA        33.4430   63.3370   62.2010 C.3   166  CYS166      0.1677
     72  C         34.3820   64.5510   62.3360 C.2   166  CYS166      0.2270
     73  O         35.1980   64.5920   63.2630 O.2   166  CYS166     -0.2867
     74  CB        32.6130   63.1080   63.4650 C.3   166  CYS166      0.0956
     75  SG        31.2090   64.2200   63.6430 S.3   166  CYS166     -0.0801
     76  N         31.4820   65.8660   66.6740 N.3   170  ASN170     -0.1240
     77  CA        30.3000   66.0680   67.5110 C.3   170  ASN170      0.1653
     78  C         30.0920   64.7680   68.2970 C.2   170  ASN170      0.2266
     79  O         29.9270   63.7040   67.7010 O.2   170  ASN170     -0.2867
     80  CB        29.1050   66.3610   66.5920 C.3   170  ASN170      0.1155
     81  CG        27.7850   66.5210   67.3380 C.2   170  ASN170      0.2627
     82  OD1       27.7610   66.9650   68.4750 O.2   170  ASN170     -0.2716
     83  ND2       26.6720   66.1600   66.6740 N.am  170  ASN170     -0.0877
     84  N         32.4690   63.2510   57.5850 N.3   198  ASP198     -0.1239
     85  CA        31.2000   63.9550   57.8590 C.3   198  ASP198      0.1674
     86  C         31.5130   65.3570   58.3460 C.2   198  ASP198      0.2266
     87  O         31.8830   65.5720   59.5090 O.2   198  ASP198     -0.2867
     88  CB        30.3640   63.2120   58.8920 C.3   198  ASP198      0.1410
     89  CG        29.0210   63.8810   59.1600 C.2   198  ASP198      0.3668
     90  OD1       28.8700   65.0890   58.8500 O.co2 198  ASP198     -0.2456
     91  OD2       28.1270   63.1730   59.6880 O.co2 198  ASP198     -0.2456
     92  N         29.4920   68.0580   58.2870 N.3   200  ILE200     -0.1231
     93  CA        28.2700   68.8700   58.3330 C.3   200  ILE200      0.1692
     94  C         28.4440   70.1690   59.1520 C.2   200  ILE200      0.2592
     95  O         27.7970   71.1700   58.8800 O.2   200  ILE200     -0.2718
     96  CB        27.0520   68.0310   58.8060 C.3   200  ILE200      0.0266
     97  CG1       25.7490   68.7090   58.3810 C.3   200  ILE200      0.0019
     98  CG2       27.1240   67.7610   60.3130 C.3   200  ILE200      0.0020
     99  CD1       24.5020   67.9090   58.7190 C.3   200  ILE200      0.0001
    100  N         29.3150   70.1540   60.1510 N.am  201  HIS201     -0.1976
    101  CA        29.5630   71.3360   60.9750 C.3   201  HIS201      0.1656
    102  C         30.7330   72.2230   60.4970 C.2   201  HIS201      0.2291
    103  O         31.1860   73.1170   61.2410 O.2   201  HIS201     -0.2864
    104  CB        29.8320   70.9260   62.4180 C.3   201  HIS201      0.0771
    105  CG        28.7210   70.1490   63.0460 C.ar  201  HIS201      0.0820
    106  ND1       27.6580   70.7590   63.6660 N.ar  201  HIS201     -0.2267
    107  CD2       28.5140   68.8120   63.1610 C.ar  201  HIS201      0.1154
    108  CE1       26.8250   69.8300   64.1130 C.ar  201  HIS201      0.1986
    109  NE2       27.3230   68.6400   63.8230 N.ar  201  HIS201     -0.2212
    110  N         26.5890   69.8480   54.0780 N.3   230  SER230     -0.1217
    111  CA        25.2430   70.3750   53.8890 C.3   230  SER230      0.1889
    112  C         25.2340   71.8460   54.2550 C.2   230  SER230      0.2288
    113  O         26.1230   72.3400   54.9770 O.2   230  SER230     -0.2866
    114  CB        24.2670   69.6300   54.8040 C.3   230  SER230      0.2089
    115  OG        22.9120   69.9740   54.5210 O.3   230  SER230     -0.2183
    116  N         22.4550   72.7020   55.9270 N.3   232  THR232     -0.1203
    117  CA        21.4200   72.6570   56.9710 C.3   232  THR232      0.1994
    118  C         21.8540   73.0630   58.3680 C.2   232  THR232      0.2617
    119  O         21.1250   73.7840   59.0520 O.2   232  THR232     -0.2717
    120  CB        20.7020   71.2850   57.0590 C.3   232  THR232      0.1784
    121  OG1       21.6190   70.2560   57.4430 O.3   232  THR232     -0.2211
    122  CG2       20.0130   70.9360   55.7270 C.3   232  THR232      0.0376
    123  N         23.0180   72.5960   58.8210 N.am  233  LYS233     -0.1979
    124  CA        23.4780   72.9850   60.1660 C.3   233  LYS233      0.1596
    125  C         23.9390   74.4310   60.1660 C.2   233  LYS233      0.2287
    126  O         23.6250   75.1910   61.0740 O.2   233  LYS233     -0.2864
    127  CB        24.6290   72.1000   60.6770 C.3   233  LYS233      0.0298
    128  CG        24.2480   70.7400   61.0510 C.3   233  LYS233      0.0038
    129  CD        23.2100   70.7500   62.1580 C.3   233  LYS233      0.0206
    130  CE        22.6280   69.4230   62.3320 C.3   233  LYS233      0.1093
    131  NZ        21.1920   69.4410   62.5610 N.3   233  LYS233     -0.1314
    132  N         17.4310   72.4240   58.6950 N.3   238  ALA238     -0.1245
    133  CA        17.4070   70.9430   58.7560 C.3   238  ALA238      0.1562
    134  C         16.1250   70.3040   58.2020 C.2   238  ALA238      0.2260
    135  O         16.1700   69.2150   57.6260 O.2   238  ALA238     -0.2867
    136  CB        17.6850   70.4370   60.1850 C.3   238  ALA238      0.0290
    137  N         15.7110   69.2880   54.1990 N.3   241  LYS241     -0.1231
    138  CA        16.1490   67.9680   53.7220 C.3   241  LYS241      0.1693
    139  C         16.9270   67.9810   52.4030 C.2   241  LYS241      0.2592
    140  O         16.4820   67.4870   51.3640 O.2   241  LYS241     -0.2718
    141  CB        14.9580   66.9900   53.6640 C.3   241  LYS241      0.0285
    142  CG        14.3790   66.6670   55.0100 C.3   241  LYS241      0.0035
    143  CD        15.3920   65.9180   55.8690 C.3   241  LYS241      0.0206
    144  CE        14.8680   65.5580   57.2360 C.3   241  LYS241      0.1093
    145  NZ        15.9210   64.8140   57.9950 N.3   241  LYS241     -0.1314
    146  N         18.1240   68.5490   52.4540 N.am  242  ASN242     -0.1960
    147  CA        19.0680   68.3650   51.3710 C.3   242  ASN242      0.1819
    148  C         20.4880   68.4450   51.9370 C.2   242  ASN242      0.2622
    149  O         20.7150   69.1370   52.9320 O.2   242  ASN242     -0.2715
    150  CB        18.8640   69.4020   50.2610 C.3   242  ASN242      0.1195
    151  CG        19.6860   69.0920   49.0050 C.2   242  ASN242      0.2630
    152  OD1       19.9440   67.9170   48.6980 O.2   242  ASN242     -0.2716
    153  ND2       20.1120   70.1410   48.2900 N.am  242  ASN242     -0.0877
    154  N         21.4110   67.7620   51.2590 N.am  243  SER243     -0.1950
    155  CA        22.8190   67.6370   51.6510 C.3   243  SER243      0.1924
    156  C         23.5530   67.0640   50.4630 C.2   243  SER243      0.2314
    157  O         22.9300   66.7390   49.4680 O.2   243  SER243     -0.2863
    158  CB        22.9830   66.6880   52.8310 C.3   243  SER243      0.2116
    159  OG        22.7660   65.3280   52.4680 O.3   243  SER243     -0.2180
    160  N         20.9620   66.7410   75.7110 N.3   350  ASN350     -0.1240
    161  CA        21.2410   65.3810   75.2540 C.3   350  ASN350      0.1653
    162  C         21.9730   64.5860   76.3120 C.2   350  ASN350      0.2266
    163  O         22.9470   65.0620   76.8680 O.2   350  ASN350     -0.2867
    164  CB        22.0870   65.3370   73.9850 C.3   350  ASN350      0.1155
    165  CG        21.4570   66.0980   72.8380 C.2   350  ASN350      0.2627
    166  OD1       21.4990   67.3200   72.8140 O.2   350  ASN350     -0.2716
    167  ND2       20.8760   65.3780   71.8840 N.am  350  ASN350     -0.0877
    168  N         25.9890   58.8170   73.2430 N.3   355  TYR355     -0.1241
    169  CA        27.1240   58.9820   72.3050 C.3   355  TYR355      0.1605
    170  C         28.1920   57.8800   72.4890 C.2   355  TYR355      0.2264
    171  O         29.1680   57.8240   71.7350 O.2   355  TYR355     -0.2867
    172  CB        27.7630   60.3780   72.4780 C.3   355  TYR355      0.0534
    173  CG        26.7950   61.5280   72.2540 C.ar  355  TYR355     -0.0201
    174  CD1       25.9520   61.9630   73.2620 C.ar  355  TYR355     -0.0009
    175  CD2       26.6850   62.1400   71.0140 C.ar  355  TYR355     -0.0009
    176  CE1       25.0120   62.9710   73.0320 C.ar  355  TYR355      0.0417
    177  CE2       25.7850   63.1570   70.7910 C.ar  355  TYR355      0.0417
    178  CZ        24.9370   63.5630   71.7890 C.ar  355  TYR355      0.1957
    179  OH        24.0040   64.5660   71.5510 O.3   355  TYR355     -0.2866
    180  N         24.9950   67.1880   76.7530 N.3   364  ARG364     -0.1245
    181  CA        25.3550   68.1470   75.7150 C.3   364  ARG364      0.1563
    182  C         24.3760   69.3030   75.6300 C.2   364  ARG364      0.2260
    183  O         23.1600   69.0980   75.5190 O.2   364  ARG364     -0.2867
    184  CB        25.4780   67.4690   74.3600 C.3   364  ARG364      0.0307
    185  CG        26.2200   68.3420   73.3590 C.3   364  ARG364      0.0489
    186  CD        26.0760   67.8120   71.9500 C.3   364  ARG364      0.2205
    187  NE        24.7120   68.0090   71.4700 N.pl3 364  ARG364     -0.0865
    188  CZ        24.2050   67.5190   70.3490 C.cat 364  ARG364      0.5346
    189  NH1       24.9290   66.7750   69.5190 N.pl3 364  ARG364      0.1354
    190  NH2       22.9460   67.7660   70.0660 N.pl3 364  ARG364      0.1354
@<TRIPOS>BOND
     1   153   151   am
     2   152   151    2
     3   151   150    1
     4   157   156    2
     5   150   147    1
     6   156   155    1
     7   154   155    1
     8   154   148   am
     9   140   139    2
    10   147   148    1
    11   147   146    1
    12   155   158    1
    13   148   149    2
    14   139   146   am
    15   139   138    1
    16   159   158    1
    17    14    15    1
    18   141   138    1
    19   141   142    1
    20   138   137    1
    21    17    16    2
    22   111   110    1
    23   111   112    1
    24   111   114    1
    25    35    34    2
    26    36    33    1
    27    36    37    1
    28    34    33    1
    29   112   113    2
    30    15    16    1
    31   115   114    1
    32    16    18   am
    33    33    32    1
    34   142   143    1
    35    37    38    1
    36    39    40    1
    37    18    19    1
    38    42    41    2
    39   122   120    1
    40    19    20    1
    41    19    22    1
    42    41    40    1
    43    24    22    1
    44   143   144    1
    45   116   117    1
    46    40    43    1
    47    32    38    1
    48    32    27   am
    49    21    20    2
    50    20    25   am
    51    22    23    1
    52    28    27    2
    53    27    26    1
    54   117   120    1
    55   117   118    1
    56   120   121    1
    57   144   145    1
    58    25    26    1
    59    43    44    1
    60    43    45    1
    61    84    85    1
    62   135   134    2
    63    44    46    1
    64    85    86    1
    65    85    88    1
    66    26    29    1
    67   134   133    1
    68    92    93    1
    69    93    96    1
    70    93    94    1
    71    86    87    2
    72   118   123   am
    73   118   119    2
    74    97    99    1
    75    97    96    1
    76   132   133    1
    77   133   136    1
    78    96    98    1
    79   123   124    1
    80    90    89   ar
    81    95    94    2
    82    88    89    1
    83    94   100   am
    84    89    91   ar
    85    29    30    1
    86    29    31    1
    87   100   101    1
    88   124   125    1
    89   124   127    1
    90   125   126    2
    91   102   101    1
    92   102   103    2
    93   127   128    1
    94   101   104    1
    95   128   129    1
    96    69    67   ar
    97    69    68   ar
    98    70    71    1
    99    67    65   ar
   100   129   130    1
   101    71    72    1
   102    71    74    1
   103   130   131    1
   104    72    73    2
   105    68    66   ar
   106   104   105    1
   107    65    64   ar
   108   105   107   ar
   109   105   106   ar
   110    66    64   ar
   111   107   109   ar
   112    62    61    2
   113    64    63    1
   114    56    54   ar
   115    56    57   ar
   116    74    75    1
   117    60    59    1
   118    60    61    1
   119    60    63    1
   120   106   108   ar
   121    58    57    1
   122   109   108   ar
   123    54    52   ar
   124    57    55   ar
   125    12    11    2
   126    52    51    1
   127    52    53   ar
   128    55    53   ar
   129    11    10    1
   130    51    48    1
   131    50    49    2
   132    13    10    1
   133    80    81    1
   134    80    77    1
   135     8     6    1
   136    83    81   am
   137    76    77    1
   138    10     9    1
   139    49    48    1
   140    48    47    1
   141     6     5    1
   142    81    82    2
   143    77    78    1
   144     9     3   am
   145    79    78    2
   146     3     4    2
   147     3     2    1
   148     5     7    1
   149     5     2    1
   150     2     1    1
   151   189   188    1
   152   190   188    1
   153   188   187    2
   154   177   175   ar
   155   177   178   ar
   156   175   173   ar
   157   187   186    1
   158   179   178    1
   159   171   170    2
   160   178   176   ar
   161   167   165   am
   162   186   185    1
   163   173   172    1
   164   173   174   ar
   165   169   172    1
   166   169   170    1
   167   169   168    1
   168   166   165    2
   169   165   164    1
   170   176   174   ar
   171   185   184    1
   172   164   161    1
   173   184   181    1
   174   161   160    1
   175   161   162    1
   176   183   182    2
   177   182   181    1
   178   181   180    1
   179   162   163    2
