@<TRIPOS>MOLECULE
tmp/3b1fA00.pdb
 182 177 0 0 0
SMALL
GASTEIGER

@<TRIPOS>ATOM
      1  N         24.1820   29.7530   26.6400 N.3    12  GLY12      -0.1210
      2  CA        24.1840   28.2880   26.4990 C.3    12  GLY12       0.1956
      3  C         22.8270   27.7460   26.9040 C.2    12  GLY12       0.2612
      4  O         22.4660   27.7320   28.0900 O.2    12  GLY12      -0.2717
      5  N         22.0640   27.3080   25.9120 N.am   13  LEU13      -0.1965
      6  CA        20.6900   26.8650   26.1440 C.3    13  LEU13       0.1728
      7  C         20.5830   25.3720   25.8770 C.2    13  LEU13       0.2617
      8  O         19.6300   24.9070   25.2380 O.2    13  LEU13      -0.2715
      9  CB        19.6870   27.7000   25.2990 C.3    13  LEU13       0.0311
     10  CG        19.8250   29.2330   25.3320 C.3    13  LEU13       0.0022
     11  CD1       19.0910   29.9280   24.2030 C.3    13  LEU13       0.0001
     12  CD2       19.3930   29.7900   26.6710 C.3    13  LEU13       0.0001
     13  N         21.5840   24.6270   26.3320 N.am   14  GLY14      -0.1940
     14  CA        21.5290   23.1440   26.3510 C.3    14  GLY14       0.2014
     15  C         20.6160   22.6880   27.4730 C.2    14  GLY14       0.2639
     16  O         19.7920   23.4380   27.9630 O.2    14  GLY14      -0.2714
     17  N         20.7960   21.4680   27.9070 N.am   15  LEU15      -0.1963
     18  CA        20.0380   20.9000   29.0090 C.3    15  LEU15       0.1728
     19  C         20.0780   21.7290   30.3200 C.2    15  LEU15       0.2616
     20  O         19.0640   21.9990   30.9520 O.2    15  LEU15      -0.2715
     21  CB        20.6380   19.5200   29.3000 C.3    15  LEU15       0.0311
     22  CG        19.9040   18.8300   30.4350 C.3    15  LEU15       0.0022
     23  CD1       18.4340   18.5490   30.0450 C.3    15  LEU15       0.0001
     24  CD2       20.6590   17.6090   30.8300 C.3    15  LEU15       0.0001
     25  N         21.2860   22.0450   30.7510 N.am   16  ILE16      -0.1963
     26  CA        21.5190   22.7850   31.9620 C.3    16  ILE16       0.1727
     27  C         21.0070   24.2340   31.8420 C.2    16  ILE16       0.2616
     28  O         20.2400   24.6700   32.6940 O.2    16  ILE16      -0.2715
     29  CB        23.0310   22.7310   32.3590 C.3    16  ILE16       0.0290
     30  CG1       23.5130   21.2730   32.5870 C.3    16  ILE16       0.0022
     31  CG2       23.3260   23.6510   33.5290 C.3    16  ILE16       0.0023
     32  CD1       22.8040   20.5040   33.7040 C.3    16  ILE16       0.0001
     33  N         21.4100   24.9840   30.8070 N.am   17  GLY17      -0.1955
     34  CA        21.0630   26.4100   30.7510 C.3    17  GLY17       0.1869
     35  C         19.5550   26.5930   30.6710 C.2    17  GLY17       0.2309
     36  O         18.9740   27.4150   31.4080 O.2    17  GLY17      -0.2863
     37  N         21.6750   33.2480   25.0840 N.3    36  TYR36      -0.1227
     38  CA        22.6340   33.0350   23.9920 C.3    36  TYR36       0.1736
     39  C         22.6960   31.5700   23.6590 C.2    36  TYR36       0.2595
     40  O         22.7520   30.7630   24.5670 O.2    36  TYR36      -0.2718
     41  CB        24.0510   33.4630   24.3730 C.3    36  TYR36       0.0548
     42  CG        25.1470   32.8330   23.4760 C.ar   36  TYR36      -0.0200
     43  CD1       25.5380   33.4400   22.2900 C.ar   36  TYR36      -0.0009
     44  CD2       25.7680   31.6210   23.8250 C.ar   36  TYR36      -0.0009
     45  CE1       26.5260   32.8840   21.4760 C.ar   36  TYR36       0.0417
     46  CE2       26.7560   31.0510   23.0270 C.ar   36  TYR36       0.0417
     47  CZ        27.1450   31.6990   21.8590 C.ar   36  TYR36       0.1957
     48  OH        28.1290   31.1440   21.0590 O.3    36  TYR36      -0.2866
     49  N         22.7280   31.2310   22.3620 N.am   37  ASN37      -0.1960
     50  CA        23.1300   29.8880   21.9450 C.3    37  ASN37       0.1819
     51  C         23.7600   29.8600   20.5420 C.2    37  ASN37       0.2621
     52  O         23.2910   30.5260   19.6330 O.2    37  ASN37      -0.2715
     53  CB        21.9740   28.8980   22.0270 C.3    37  ASN37       0.1195
     54  CG        22.4600   27.4820   22.1590 C.2    37  ASN37       0.2630
     55  OD1       22.9040   27.0630   23.2210 O.2    37  ASN37      -0.2716
     56  ND2       22.4290   26.7460   21.0710 N.am   37  ASN37      -0.0877
     57  N         24.8390   29.0930   20.3860 N.am   38  ARG38      -0.1963
     58  CA        25.5720   29.0320   19.1130 C.3    38  ARG38       0.1729
     59  C         24.6960   28.3840   18.0370 C.2    38  ARG38       0.2616
     60  O         24.2470   29.0690   17.1340 O.2    38  ARG38      -0.2715
     61  CB        26.9090   28.2620   19.2720 C.3    38  ARG38       0.0348
     62  CG        27.7650   28.1120   17.9650 C.3    38  ARG38       0.0492
     63  CD        28.8430   27.0450   18.1510 C.3    38  ARG38       0.2205
     64  NE        28.3650   25.8990   18.9510 N.pl3  38  ARG38      -0.0865
     65  CZ        29.0140   24.7550   19.0640 C.cat  38  ARG38       0.5346
     66  NH1       30.1700   24.5910   18.4370 N.pl3  38  ARG38       0.1354
     67  NH2       28.5220   23.7770   19.8090 N.pl3  38  ARG38       0.1354
     68  N         24.4440   27.0740   18.1530 N.am   39  SER39      -0.1950
     69  CA        23.6560   26.3450   17.1410 C.3    39  SER39       0.1924
     70  C         22.1990   26.7820   17.1550 C.2    39  SER39       0.2314
     71  O         21.6230   27.0280   18.2410 O.2    39  SER39      -0.2863
     72  CB        23.7370   24.8380   17.3590 C.3    39  SER39       0.2116
     73  OG        25.0910   24.4160   17.3150 O.3    39  SER39      -0.2180
     74  N         18.8650   24.4500   19.3040 N.3    42  SER42      -0.1217
     75  CA        18.5810   24.6620   20.7280 C.3    42  SER42       0.1889
     76  C         18.0260   26.0540   21.0310 C.2    42  SER42       0.2288
     77  O         17.2270   26.2310   21.9700 O.2    42  SER42      -0.2866
     78  CB        19.8090   24.3570   21.5910 C.3    42  SER42       0.2089
     79  OG        19.8020   23.0010   21.9880 O.3    42  SER42      -0.2183
     80  N         26.3840   28.7480   30.9310 N.3    72  ALA72      -0.1231
     81  CA        26.0600   27.3030   30.9110 C.3    72  ALA72       0.1694
     82  C         26.5740   26.6260   29.6000 C.2    72  ALA72       0.2592
     83  O         25.8900   25.8120   29.0050 O.2    72  ALA72      -0.2718
     84  CB        24.5260   27.0640   31.1250 C.3    72  ALA72       0.0304
     85  N         27.7990   26.9470   29.1990 N.am   73  VAL73      -0.1966
     86  CA        28.4360   26.3610   28.0270 C.3    73  VAL73       0.1712
     87  C         29.5430   25.4730   28.5570 C.2    73  VAL73       0.2458
     88  O         29.7450   25.4760   29.7640 O.2    73  VAL73      -0.2730
     89  CB        28.9940   27.4600   27.1090 C.3    73  VAL73       0.0289
     90  CG1       27.8310   28.1570   26.3310 C.3    73  VAL73       0.0023
     91  CG2       29.8090   28.4870   27.8780 C.3    73  VAL73       0.0023
     92  N         30.2940   24.7310   27.6810 N.am   74  PRO74      -0.2716
     93  CA        31.3020   23.8460   28.3650 C.3    74  PRO74       0.1536
     94  C         32.4170   24.6270   29.0730 C.2    74  PRO74       0.2598
     95  O         32.4970   25.8660   28.9930 O.2    74  PRO74      -0.2715
     96  CB        31.8680   22.9450   27.2290 C.3    74  PRO74       0.0310
     97  CG        30.7080   22.8260   26.2690 C.3    74  PRO74       0.0237
     98  CD        30.0580   24.2840   26.2910 C.3    74  PRO74       0.0939
     99  N         33.2540   23.8730   29.7640 N.am   75  ILE75      -0.1978
    100  CA        34.1830   24.4380   30.6990 C.3    75  ILE75       0.1596
    101  C         35.1220   25.4080   30.0030 C.2    75  ILE75       0.2287
    102  O         35.3430   26.4970   30.5110 O.2    75  ILE75      -0.2864
    103  CB        34.9430   23.3050   31.5020 C.3    75  ILE75       0.0276
    104  CG1       33.9870   22.6290   32.5310 C.3    75  ILE75       0.0022
    105  CG2       36.1890   23.9150   32.1030 C.3    75  ILE75       0.0022
    106  CD1       34.5150   21.3010   33.2360 C.3    75  ILE75       0.0001
    107  N         34.7070   26.9980   27.1060 N.3    77  LYS77      -0.1245
    108  CA        34.0220   28.1560   26.5310 C.3    77  LYS77       0.1561
    109  C         33.6170   29.1590   27.6430 C.2    77  LYS77       0.2260
    110  O         33.6330   30.3880   27.4080 O.2    77  LYS77      -0.2867
    111  CB        32.8030   27.7300   25.7310 C.3    77  LYS77       0.0271
    112  CG        32.4150   28.8000   24.6640 C.3    77  LYS77       0.0035
    113  CD        33.6620   29.2140   23.7990 C.3    77  LYS77       0.0206
    114  CE        33.3110   29.6020   22.3570 C.3    77  LYS77       0.1093
    115  NZ        34.1010   30.7710   21.7790 N.3    77  LYS77      -0.1314
    116  N         34.2730   32.9950   27.5540 N.3    81  PHE81      -0.1241
    117  CA        33.2580   34.0320   27.7510 C.3    81  PHE81       0.1605
    118  C         33.6470   34.9460   28.9080 C.2    81  PHE81       0.2264
    119  O         33.3870   36.1240   28.8530 O.2    81  PHE81      -0.2867
    120  CB        31.8540   33.4270   27.9570 C.3    81  PHE81       0.0534
    121  CG        31.2230   32.8480   26.6780 C.ar   81  PHE81      -0.0203
    122  CD1       31.6470   33.2330   25.4090 C.ar   81  PHE81      -0.0042
    123  CD2       30.1420   31.9810   26.7650 C.ar   81  PHE81      -0.0042
    124  CE1       31.0200   32.6920   24.2360 C.ar   81  PHE81      -0.0003
    125  CE2       29.5180   31.4620   25.6290 C.ar   81  PHE81      -0.0003
    126  CZ        29.9560   31.8060   24.3590 C.ar   81  PHE81      -0.0000
    127  N         28.4460   27.1060   35.6700 N.3    99  ALA99      -0.1231
    128  CA        27.6900   25.8760   35.9750 C.3    99  ALA99       0.1694
    129  C         28.5870   24.6410   35.7530 C.2    99  ALA99       0.2593
    130  O         28.0790   23.5300   35.5570 O.2    99  ALA99      -0.2718
    131  CB        26.4520   25.7720   35.0990 C.3    99  ALA99       0.0304
    132  N         29.9010   24.8750   35.8080 N.am  100  GLY100     -0.1942
    133  CA        30.9100   23.8820   35.5800 C.3   100  GLY100      0.2014
    134  C         30.8770   22.7030   36.5470 C.2   100  GLY100      0.2639
    135  O         30.6590   22.8570   37.7930 O.2   100  GLY100     -0.2714
    136  N         31.1550   21.5150   35.9870 N.am  101  SER101     -0.1949
    137  CA        31.3250   20.3120   36.7940 C.3   101  SER101      0.1924
    138  C         32.5640   20.3580   37.6850 C.2   101  SER101      0.2314
    139  O         32.6700   19.5740   38.6210 O.2   101  SER101     -0.2863
    140  CB        31.4130   19.0560   35.8810 C.3   101  SER101      0.2116
    141  OG        30.1700   18.9120   35.2140 O.3   101  SER101     -0.2180
    142  N         27.9100   24.8890   40.6090 N.3   125  HIS125     -0.1227
    143  CA        27.8070   23.5560   40.0230 C.3   125  HIS125      0.1737
    144  C         26.4490   22.9930   40.4340 C.2   125  HIS125      0.2438
    145  O         26.2620   22.5600   41.5850 O.2   125  HIS125     -0.2733
    146  CB        28.9810   22.6430   40.3900 C.3   125  HIS125      0.0758
    147  CG        28.8100   21.2010   39.9410 C.ar  125  HIS125      0.0818
    148  ND1       29.5230   20.1600   40.5110 N.ar  125  HIS125     -0.2268
    149  CD2       28.0410   20.6260   38.9740 C.ar  125  HIS125      0.1154
    150  CE1       29.1990   19.0120   39.9220 C.ar  125  HIS125      0.1986
    151  NE2       28.2970   19.2680   38.9940 N.ar  125  HIS125     -0.2212
    152  N         25.4700   23.0570   39.5170 N.am  126  PRO126     -0.2729
    153  CA        24.1170   22.4740   39.7750 C.3   126  PRO126      0.1401
    154  C         24.2610   20.9920   39.4850 C.2   126  PRO126      0.2269
    155  O         24.3890   20.6360   38.3210 O.2   126  PRO126     -0.2865
    156  CB        23.2310   23.1500   38.6930 C.3   126  PRO126      0.0296
    157  CG        24.1540   23.5190   37.5920 C.3   126  PRO126      0.0237
    158  CD        25.5670   23.6700   38.1870 C.3   126  PRO126      0.0939
    159  N         21.5160   14.5380   25.3960 N.3   128  SER128     -0.1202
    160  CA        20.7500   15.5890   26.0530 C.3   128  SER128      0.2020
    161  C         20.9870   16.9440   25.3980 C.2   128  SER128      0.2619
    162  O         22.0680   17.2120   24.8750 O.2   128  SER128     -0.2717
    163  CB        21.0980   15.6540   27.5400 C.3   128  SER128      0.2103
    164  OG        20.3300   14.7220   28.2800 O.3   128  SER128     -0.2182
    165  N         19.9660   17.7930   25.4290 N.am  129  GLY129     -0.1956
    166  CA        20.0550   19.1790   24.8290 C.3   129  GLY129      0.1869
    167  C         18.8090   20.0730   25.2470 C.2   129  GLY129      0.2309
    168  O         18.0610   19.6810   26.1690 O.2   129  GLY129     -0.2863
    169  N         37.0380   17.5180   29.3270 N.3   230  SER230     -0.1202
    170  CA        37.3680   18.8170   29.9580 C.3   230  SER230      0.2020
    171  C         37.3570   18.7160   31.4980 C.2   230  SER230      0.2618
    172  O         38.0490   19.4620   32.1730 O.2   230  SER230     -0.2717
    173  CB        36.4390   19.9140   29.4680 C.3   230  SER230      0.2103
    174  OG        35.1480   19.6030   29.9390 O.3   230  SER230     -0.2182
    175  N         36.5900   17.7810   32.0590 N.am  231  ILE231     -0.1979
    176  CA        36.6340   17.5580   33.5210 C.3   231  ILE231      0.1595
    177  C         38.0030   17.0170   33.8810 C.2   231  ILE231      0.2287
    178  O         38.6390   17.4940   34.7910 O.2   231  ILE231     -0.2864
    179  CB        35.5120   16.5800   33.9830 C.3   231  ILE231      0.0276
    180  CG1       34.1520   17.2910   33.8780 C.3   231  ILE231      0.0022
    181  CG2       35.8470   15.9750   35.3850 C.3   231  ILE231      0.0022
    182  CD1       32.8800   16.3060   34.0670 C.3   231  ILE231      0.0001
@<TRIPOS>BOND
     1    60    59    2
     2    69    70    1
     3    69    72    1
     4    69    68    1
     5    70    71    2
     6    73    72    1
     7    62    63    1
     8    62    61    1
     9    59    68   am
    10    59    58    1
    11    63    64    1
    12    66    65    1
    13    64    65    2
    14    65    67    1
    15    58    61    1
    16    58    57    1
    17    74    75    1
    18    52    51    2
    19    57    51   am
    20    51    50    1
    21    75    76    1
    22    75    78    1
    23    76    77    2
    24    48    47    1
    25    56    54   am
    26    45    47   ar
    27    45    43   ar
    28    78    79    1
    29   115   114    1
    30    47    46   ar
    31    50    53    1
    32    50    49    1
    33    53    54    1
    34    54    55    2
    35    43    42   ar
    36   114   113    1
    37    49    39   am
    38    46    44   ar
    39    42    44   ar
    40    42    41    1
    41    39    38    1
    42    39    40    2
    43   113   112    1
    44    38    41    1
    45    38    37    1
    46    11    10    1
    47   124   126   ar
    48   124   122   ar
    49   126   125   ar
    50   112   111    1
    51   166   167    1
    52   166   165    1
    53   162   161    2
    54     8     7    2
    55   167   168    2
    56     9    10    1
    57     9     6    1
    58    10    12    1
    59   159   160    1
    60   161   165   am
    61   161   160    1
    62   122   121   ar
    63   125   123   ar
    64   111   108    1
    65     7     6    1
    66     7    13   am
    67     5     6    1
    68     5     3   am
    69   160   163    1
    70    97    98    1
    71    97    96    1
    72    98    92    1
    73    90    89    1
    74    13    14    1
    75    14    15    1
    76     2     1    1
    77     2     3    1
    78   108   107    1
    79   108   109    1
    80   121   123   ar
    81   121   120    1
    82     3     4    2
    83    89    91    1
    84    89    86    1
    85    96    93    1
    86   110   109    2
    87    15    17   am
    88    15    16    2
    89   163   164    1
    90   116   117    1
    91    92    93    1
    92    92    87   am
    93   117   120    1
    94   117   118    1
    95    17    18    1
    96    86    87    1
    97    86    85    1
    98    93    94    1
    99    87    88    2
   100   119   118    2
   101    95    94    2
   102    83    82    2
   103    18    21    1
   104    18    19    1
   105    94    99   am
   106    85    82   am
   107    21    22    1
   108   169   170    1
   109   173   174    1
   110   173   170    1
   111    82    81    1
   112    99   100    1
   113   170   171    1
   114   101   102    2
   115   101   100    1
   116    23    22    1
   117    19    25   am
   118    19    20    2
   119    22    24    1
   120    35    34    1
   121    35    36    2
   122   100   103    1
   123    34    33    1
   124    25    26    1
   125    33    27   am
   126    81    80    1
   127    81    84    1
   128   171   175   am
   129   171   172    2
   130   103   105    1
   131   103   104    1
   132    27    26    1
   133    27    28    2
   134    26    29    1
   135   175   176    1
   136    29    30    1
   137    29    31    1
   138   104   106    1
   139    30    32    1
   140   176   177    1
   141   176   179    1
   142   180   179    1
   143   180   182    1
   144   177   178    2
   145   179   181    1
   146   131   128    1
   147   141   140    1
   148   130   129    2
   149   133   132    1
   150   133   134    1
   151   127   128    1
   152   129   132   am
   153   129   128    1
   154   140   137    1
   155   136   134   am
   156   136   137    1
   157   134   135    2
   158   137   138    1
   159   157   158    1
   160   157   156    1
   161   138   139    2
   162   158   152    1
   163   155   154    2
   164   156   153    1
   165   149   151   ar
   166   149   147   ar
   167   151   150   ar
   168   154   153    1
   169   152   153    1
   170   152   144   am
   171   150   148   ar
   172   147   146    1
   173   147   148   ar
   174   143   146    1
   175   143   144    1
   176   143   142    1
   177   144   145    2
