@<TRIPOS>MOLECULE
tmp/3b1mA01.pdb
 205 194 0 0 0
SMALL
GASTEIGER

@<TRIPOS>ATOM
      1  N         13.1060   39.6120   71.2650 N.3    50  LEU50      -0.1245
      2  CA        13.3140   41.0070   70.8910 C.3    50  LEU50       0.1561
      3  C         14.3130   41.6360   71.8560 C.2    50  LEU50       0.2260
      4  O         15.2500   42.3190   71.4450 O.2    50  LEU50      -0.2867
      5  CB        11.9910   41.7760   70.9420 C.3    50  LEU50       0.0270
      6  CG        12.0660   43.2850   70.6910 C.3    50  LEU50       0.0019
      7  CD1       12.6620   43.5600   69.3180 C.3    50  LEU50       0.0001
      8  CD2       10.6720   43.8850   70.8000 C.3    50  LEU50       0.0001
      9  N         20.2470   44.1310   66.1370 N.3    57  ILE57      -0.1245
     10  CA        19.4860   44.9510   65.2020 C.3    57  ILE57       0.1561
     11  C         19.6660   46.4410   65.4720 C.2    57  ILE57       0.2260
     12  O         19.3040   47.2790   64.6440 O.2    57  ILE57      -0.2867
     13  CB        17.9790   44.6210   65.2690 C.3    57  ILE57       0.0252
     14  CG1       17.4240   44.9820   66.6490 C.3    57  ILE57       0.0019
     15  CG2       17.7610   43.1450   64.9750 C.3    57  ILE57       0.0019
     16  CD1       15.9240   44.8000   66.7800 C.3    57  ILE57       0.0001
     17  N          7.8870   50.8960   70.3760 N.3    63  ARG63      -0.1231
     18  CA         9.2920   50.7080   70.0430 C.3    63  ARG63       0.1694
     19  C          9.4650   50.1820   68.6210 C.2    63  ARG63       0.2591
     20  O         10.3030   50.6750   67.8650 O.2    63  ARG63      -0.2718
     21  CB         9.9280   49.7400   71.0470 C.3    63  ARG63       0.0321
     22  CG        11.4210   49.5290   70.8800 C.3    63  ARG63       0.0489
     23  CD        11.9830   48.7010   72.0340 C.3    63  ARG63       0.2205
     24  NE        11.8610   49.3990   73.3120 N.pl3  63  ARG63      -0.0865
     25  CZ        12.1910   48.8750   74.4900 C.cat  63  ARG63       0.5346
     26  NH1       12.6600   47.6370   74.5630 N.pl3  63  ARG63       0.1354
     27  NH2       12.0570   49.5930   75.5960 N.pl3  63  ARG63       0.1354
     28  N          8.6650   49.1820   68.2630 N.am   64  ILE64      -0.1980
     29  CA         8.7270   48.5940   66.9290 C.3    64  ILE64       0.1595
     30  C          8.2980   49.6150   65.8790 C.2    64  ILE64       0.2287
     31  O          8.9150   49.7290   64.8180 O.2    64  ILE64      -0.2864
     32  CB         7.8110   47.3530   66.8340 C.3    64  ILE64       0.0276
     33  CG1        8.2640   46.2960   67.8470 C.3    64  ILE64       0.0022
     34  CG2        7.8310   46.7930   65.4180 C.3    64  ILE64       0.0022
     35  CD1        9.6730   45.8000   67.6280 C.3    64  ILE64       0.0001
     36  N          8.4680   52.8900   66.0370 N.3    66  GLN66      -0.1231
     37  CA         9.5230   53.8840   65.8970 C.3    66  GLN66       0.1698
     38  C         10.6580   53.3210   65.0480 C.2    66  GLN66       0.2593
     39  O         11.3220   54.0550   64.3150 O.2    66  GLN66      -0.2718
     40  CB        10.0440   54.2880   67.2780 C.3    66  GLN66       0.0381
     41  CG         8.9800   54.9180   68.1640 C.3    66  GLN66       0.0905
     42  CD         8.4780   56.2430   67.6250 C.2    66  GLN66       0.2608
     43  OE1        7.4080   56.7180   68.0090 O.2    66  GLN66      -0.2717
     44  NE2        9.2560   56.8560   66.7390 N.am   66  GLN66      -0.0878
     45  N         10.8700   52.0130   65.1520 N.am   67  GLY67      -0.1942
     46  CA        11.9120   51.3690   64.3750 C.3    67  GLY67       0.2014
     47  C         11.5710   51.4640   62.9030 C.2    67  GLY67       0.2639
     48  O         12.4280   51.7800   62.0770 O.2    67  GLY67      -0.2714
     49  N         10.3130   51.2000   62.5720 N.am   68  CYS68      -0.1967
     50  CA         9.8780   51.2750   61.1840 C.3    68  CYS68       0.1712
     51  C         10.0240   52.7030   60.6580 C.2    68  CYS68       0.2296
     52  O         10.3960   52.9030   59.5030 O.2    68  CYS68      -0.2864
     53  CB         8.4250   50.8090   61.0450 C.3    68  CYS68       0.0983
     54  SG         8.1700   49.0320   61.3060 S.3    68  CYS68      -0.0798
     55  N         12.2420   54.9890   61.5520 N.3    70  PHE70      -0.1227
     56  CA        13.6550   55.2490   61.3000 C.3    70  PHE70       0.1736
     57  C         14.0850   54.6520   59.9630 C.2    70  PHE70       0.2595
     58  O         14.7890   55.2960   59.1850 O.2    70  PHE70      -0.2718
     59  CB        14.5180   54.6720   62.4270 C.3    70  PHE70       0.0547
     60  CG        14.6080   55.5590   63.6430 C.ar   70  PHE70      -0.0202
     61  CD1       13.4600   56.0100   64.2870 C.ar   70  PHE70      -0.0042
     62  CD2       15.8480   55.9320   64.1510 C.ar   70  PHE70      -0.0042
     63  CE1       13.5460   56.8210   65.4210 C.ar   70  PHE70      -0.0003
     64  CE2       15.9470   56.7420   65.2830 C.ar   70  PHE70      -0.0003
     65  CZ        14.7930   57.1870   65.9180 C.ar   70  PHE70      -0.0000
     66  N         13.6630   53.4200   59.6970 N.am   71  ARG71      -0.1966
     67  CA        14.0150   52.7740   58.4420 C.3    71  ARG71       0.1729
     68  C         13.3390   53.4880   57.2710 C.2    71  ARG71       0.2616
     69  O         13.9280   53.6280   56.1980 O.2    71  ARG71      -0.2715
     70  CB        13.6140   51.2940   58.4680 C.3    71  ARG71       0.0348
     71  CG        13.7380   50.5930   57.1210 C.3    71  ARG71       0.0492
     72  CD        15.1180   50.8040   56.4900 C.3    71  ARG71       0.2205
     73  NE        15.1480   50.3540   55.1010 N.pl3  71  ARG71      -0.0865
     74  CZ        15.9850   50.8210   54.1780 C.cat  71  ARG71       0.5346
     75  NH1       16.8710   51.7580   54.4900 N.pl3  71  ARG71       0.1354
     76  NH2       15.9300   50.3540   52.9380 N.pl3  71  ARG71       0.1354
     77  N         12.1050   53.9380   57.4770 N.am   72  SER72      -0.1950
     78  CA        11.3820   54.6540   56.4300 C.3    72  SER72       0.1924
     79  C         12.1330   55.9260   56.0450 C.2    72  SER72       0.2314
     80  O         12.2630   56.2410   54.8630 O.2    72  SER72      -0.2863
     81  CB         9.9740   55.0130   56.9040 C.3    72  SER72       0.2116
     82  OG         9.1750   53.8500   57.0380 O.3    72  SER72      -0.2180
     83  N         14.9910   55.0330   54.0460 N.3    75  ALA75      -0.1245
     84  CA        14.5000   54.5940   52.7420 C.3    75  ALA75       0.1562
     85  C         14.1520   55.7720   51.8360 C.2    75  ALA75       0.2260
     86  O         14.4500   55.7440   50.6460 O.2    75  ALA75      -0.2867
     87  CB        13.2820   53.6900   52.9160 C.3    75  ALA75       0.0290
     88  N          8.3660   52.3130   48.7950 N.3   109  ILE109     -0.1245
     89  CA         8.7190   51.6390   50.0390 C.3   109  ILE109      0.1561
     90  C          7.9870   50.3000   50.1210 C.2   109  ILE109      0.2260
     91  O          8.5960   49.2890   50.4530 O.2   109  ILE109     -0.2867
     92  CB         8.3880   52.5100   51.2780 C.3   109  ILE109      0.0252
     93  CG1        9.3970   53.6600   51.3760 C.3   109  ILE109      0.0019
     94  CG2        8.4170   51.6510   52.5510 C.3   109  ILE109      0.0019
     95  CD1        9.1000   54.6620   52.4720 C.3   109  ILE109      0.0001
     96  N          9.9640   46.8220   50.0650 N.3   113  LEU113     -0.1245
     97  CA         9.8740   46.0850   51.3140 C.3   113  LEU113      0.1561
     98  C          9.6040   44.6150   50.9920 C.2   113  LEU113      0.2260
     99  O         10.1050   43.7220   51.6750 O.2   113  LEU113     -0.2867
    100  CB         8.7470   46.6590   52.1770 C.3   113  LEU113      0.0270
    101  CG         8.5890   46.1770   53.6190 C.3   113  LEU113      0.0019
    102  CD1        9.9050   46.3020   54.3780 C.3   113  LEU113      0.0001
    103  CD2        7.5080   47.0070   54.2920 C.3   113  LEU113      0.0001
    104  N         10.8820   40.4400   52.2870 N.3   117  MET117     -0.1245
    105  CA         9.8830   39.6430   52.9860 C.3   117  MET117      0.1570
    106  C          9.6070   38.2880   52.3570 C.2   117  MET117      0.2261
    107  O          9.8740   38.0530   51.1770 O.2   117  MET117     -0.2867
    108  CB         8.5470   40.3790   53.0540 C.3   117  MET117      0.0387
    109  CG         8.5880   41.7630   53.6640 C.3   117  MET117      0.0595
    110  SD         6.9350   42.4830   53.6720 S.3   117  MET117     -0.1393
    111  CE         6.9800   43.3880   55.2200 C.3   117  MET117      0.0692
    112  N         10.1500   39.4090   57.9260 N.3   122  VAL122     -0.1231
    113  CA        10.8740   40.4510   57.2140 C.3   122  VAL122      0.1692
    114  C         12.2980   40.6520   57.7180 C.2   122  VAL122      0.2592
    115  O         12.5610   40.5870   58.9220 O.2   122  VAL122     -0.2718
    116  CB        10.1120   41.7970   57.3200 C.3   122  VAL122      0.0266
    117  CG1        9.9870   42.2180   58.7820 C.3   122  VAL122      0.0020
    118  CG2       10.8210   42.8750   56.5090 C.3   122  VAL122      0.0020
    119  N         13.2140   40.8850   56.7820 N.am  123  LEU123     -0.1966
    120  CA        14.6110   41.1360   57.1130 C.3   123  LEU123      0.1728
    121  C         14.7530   42.5860   57.5560 C.2   123  LEU123      0.2616
    122  O         14.2030   43.4920   56.9290 O.2   123  LEU123     -0.2715
    123  CB        15.5040   40.9000   55.8920 C.3   123  LEU123      0.0311
    124  CG        15.7000   39.4520   55.4520 C.3   123  LEU123      0.0022
    125  CD1       16.5120   39.4350   54.1640 C.3   123  LEU123      0.0001
    126  CD2       16.4080   38.6660   56.5530 C.3   123  LEU123      0.0001
    127  N         15.4800   42.7990   58.6460 N.am  124  ILE124     -0.1963
    128  CA        15.7030   44.1420   59.1640 C.3   124  ILE124      0.1727
    129  C         17.1850   44.3280   59.4680 C.2   124  ILE124      0.2616
    130  O         17.9510   43.3600   59.4840 O.2   124  ILE124     -0.2715
    131  CB        14.8840   44.3920   60.4560 C.3   124  ILE124      0.0290
    132  CG1       15.3210   43.4140   61.5540 C.3   124  ILE124      0.0022
    133  CG2       13.4000   44.2250   60.1660 C.3   124  ILE124      0.0023
    134  CD1       14.5990   43.6090   62.8750 C.3   124  ILE124      0.0001
    135  N         17.5830   45.5770   59.6940 N.am  125  SER125     -0.1950
    136  CA        18.9680   45.9030   60.0080 C.3   125  SER125      0.1924
    137  C         19.9380   45.3460   58.9720 C.2   125  SER125      0.2314
    138  O         20.8570   44.5940   59.3050 O.2   125  SER125     -0.2863
    139  CB        19.3160   45.3690   61.3970 C.3   125  SER125      0.2116
    140  OG        18.3810   45.8440   62.3480 O.3   125  SER125     -0.2180
    141  N         12.4580   39.5450   61.6880 N.3   131  MET131     -0.1245
    142  CA        11.3110   39.6350   62.5830 C.3   131  MET131      0.1570
    143  C         10.1320   38.9080   61.9470 C.2   131  MET131      0.2261
    144  O          9.7500   39.1930   60.8120 O.2   131  MET131     -0.2867
    145  CB        10.9680   41.1050   62.8550 C.3   131  MET131      0.0387
    146  CG        10.1830   41.3260   64.1400 C.3   131  MET131      0.0595
    147  SD        10.1270   43.0590   64.6460 S.3   131  MET131     -0.1393
    148  CE        11.7080   43.2150   65.5040 C.3   131  MET131      0.0692
    149  N          4.8050   40.5140   64.5150 N.3   136  LEU136     -0.1245
    150  CA         4.3830   41.8620   64.1570 C.3   136  LEU136      0.1561
    151  C          2.8630   41.9840   64.0890 C.2   136  LEU136      0.2260
    152  O          2.2920   43.0110   64.4580 O.2   136  LEU136     -0.2867
    153  CB         5.0060   42.2600   62.8120 C.3   136  LEU136      0.0270
    154  CG         6.5290   42.4290   62.8370 C.3   136  LEU136      0.0019
    155  CD1        7.0720   42.5090   61.4170 C.3   136  LEU136      0.0001
    156  CD2        6.8890   43.6820   63.6190 C.3   136  LEU136      0.0001
    157  N         -1.1440   47.6780   61.3110 N.3   146  PHE146     -0.1227
    158  CA        -0.2880   48.5760   60.5450 C.3   146  PHE146      0.1736
    159  C          0.8170   47.8000   59.8340 C.2   146  PHE146      0.2595
    160  O          1.2840   48.2010   58.7690 O.2   146  PHE146     -0.2718
    161  CB         0.3400   49.6150   61.4780 C.3   146  PHE146      0.0547
    162  CG         1.4180   50.4400   60.8340 C.ar  146  PHE146     -0.0202
    163  CD1        1.0980   51.4660   59.9520 C.ar  146  PHE146     -0.0042
    164  CD2        2.7590   50.1790   61.1010 C.ar  146  PHE146     -0.0042
    165  CE1        2.1000   52.2220   59.3440 C.ar  146  PHE146     -0.0003
    166  CE2        3.7670   50.9280   60.4990 C.ar  146  PHE146     -0.0003
    167  CZ         3.4370   51.9520   59.6180 C.ar  146  PHE146     -0.0000
    168  N          1.2240   46.6860   60.4310 N.am  147  MET147     -0.1979
    169  CA         2.2920   45.8560   59.8810 C.3   147  MET147      0.1605
    170  C          1.8160   44.8640   58.8220 C.2   147  MET147      0.2287
    171  O          2.4230   44.7390   57.7570 O.2   147  MET147     -0.2864
    172  CB         2.9690   45.0710   61.0070 C.3   147  MET147      0.0413
    173  CG         3.4650   45.9160   62.1730 C.3   147  MET147      0.0598
    174  SD         4.8320   47.0020   61.7120 S.3   147  MET147     -0.1393
    175  CE         4.8870   48.1110   63.1150 C.3   147  MET147      0.0692
    176  N          1.5260   45.3390   54.7600 N.3   150  LYS150     -0.1231
    177  CA         2.7490   45.2830   53.9700 C.3   150  LYS150      0.1693
    178  C          3.0600   43.8400   53.5650 C.2   150  LYS150      0.2592
    179  O          3.5490   43.5870   52.4660 O.2   150  LYS150     -0.2718
    180  CB         3.9220   45.8870   54.7540 C.3   150  LYS150      0.0285
    181  CG         3.9100   47.4200   54.8610 C.3   150  LYS150      0.0035
    182  CD         2.7030   47.9480   55.6380 C.3   150  LYS150      0.0206
    183  CE         2.8140   49.4500   55.8700 C.3   150  LYS150      0.1093
    184  NZ         1.5980   50.0010   56.5430 N.3   150  LYS150     -0.1314
    185  N          2.7660   42.8910   54.4520 N.am  151  PHE151     -0.1976
    186  CA         3.0060   41.4800   54.1600 C.3   151  PHE151      0.1639
    187  C          1.9930   40.9500   53.1530 C.2   151  PHE151      0.2290
    188  O          2.3300   40.1440   52.2870 O.2   151  PHE151     -0.2864
    189  CB         2.9160   40.6500   55.4420 C.3   151  PHE151      0.0560
    190  CG         4.1280   40.7500   56.3170 C.ar  151  PHE151     -0.0200
    191  CD1        5.2710   40.0170   56.0250 C.ar  151  PHE151     -0.0042
    192  CD2        4.1220   41.5650   57.4460 C.ar  151  PHE151     -0.0042
    193  CE1        6.3920   40.0880   56.8440 C.ar  151  PHE151     -0.0003
    194  CE2        5.2390   41.6440   58.2720 C.ar  151  PHE151     -0.0003
    195  CZ         6.3760   40.9040   57.9720 C.ar  151  PHE151     -0.0000
    196  N         -2.6490   53.3220   54.0980 N.3   232  HIS232     -0.1241
    197  CA        -1.4690   53.4420   54.9460 C.3   232  HIS232      0.1621
    198  C         -1.4900   54.7930   55.6540 C.2   232  HIS232      0.2264
    199  O         -1.3250   54.8730   56.8720 O.2   232  HIS232     -0.2867
    200  CB        -0.2030   53.3360   54.0930 C.3   232  HIS232      0.0745
    201  CG         1.0540   53.6760   54.8290 C.ar  232  HIS232      0.0817
    202  ND1        1.6380   52.8260   55.7440 N.ar  232  HIS232     -0.2268
    203  CD2        1.8370   54.7810   54.7910 C.ar  232  HIS232      0.1154
    204  CE1        2.7260   53.3920   56.2360 C.ar  232  HIS232      0.1986
    205  NE2        2.8700   54.5780   55.6740 N.ar  232  HIS232     -0.2212
@<TRIPOS>BOND
     1    88    89    1
     2    89    90    1
     3    89    92    1
     4    96    97    1
     5    90    91    2
     6    86    85    2
     7    98    97    1
     8    98    99    2
     9   107   106    2
    10    92    93    1
    11    92    94    1
    12    97   100    1
    13    93    95    1
    14    85    84    1
    15   100   101    1
    16   104   105    1
    17   188   187    2
    18   106   105    1
    19   179   178    2
    20    84    87    1
    21    84    83    1
    22    76    74    1
    23   105   108    1
    24   108   109    1
    25   187   186    1
    26   178   177    1
    27   178   185   am
    28   101   103    1
    29   101   102    1
    30   109   110    1
    31   110   111    1
    32   177   180    1
    33   177   176    1
    34   200   201    1
    35   200   197    1
    36   196   197    1
    37   186   185    1
    38   186   189    1
    39   125   124    1
    40    74    75    1
    41    74    73    2
    42   180   181    1
    43   203   201   ar
    44   203   205   ar
    45   201   202   ar
    46   181   182    1
    47    80    79    2
    48   197   198    1
    49    73    72    1
    50   189   190    1
    51   124   123    1
    52   124   126    1
    53   182   183    1
    54   198   199    2
    55   205   204   ar
    56   202   204   ar
    57   183   184    1
    58   123   120    1
    59   191   190   ar
    60   191   193   ar
    61    79    78    1
    62    69    68    2
    63   190   192   ar
    64    78    81    1
    65    78    77    1
    66    72    71    1
    67   118   116    1
    68   119   120    1
    69   119   114   am
    70   193   195   ar
    71    81    82    1
    72   122   121    2
    73   120   121    1
    74    71    70    1
    75   113   116    1
    76   113   114    1
    77   113   112    1
    78    68    77   am
    79    68    67    1
    80   116   117    1
    81   192   194   ar
    82   121   127   am
    83   114   115    2
    84   171   170    2
    85   195   194   ar
    86    67    70    1
    87    67    66    1
    88   127   128    1
    89   160   159    2
    90   170   169    1
    91   137   138    2
    92   137   136    1
    93   128   129    1
    94   128   131    1
    95    58    57    2
    96   165   167   ar
    97   165   163   ar
    98   129   130    2
    99   129   135   am
   100    52    51    2
   101   167   166   ar
   102   135   136    1
   103    66    57   am
   104   159   168   am
   105   159   158    1
   106   169   168    1
   107   169   172    1
   108   163   162   ar
   109    57    56    1
   110   136   139    1
   111   133   131    1
   112   131   132    1
   113   166   164   ar
   114   158   157    1
   115   158   161    1
   116    51    50    1
   117   144   143    2
   118   162   164   ar
   119   162   161    1
   120   172   173    1
   121    53    50    1
   122    53    54    1
   123    50    49    1
   124    56    55    1
   125    56    59    1
   126   139   140    1
   127   155   154    1
   128   132   134    1
   129   141   142    1
   130   174   173    1
   131   174   175    1
   132   143   142    1
   133    48    47    2
   134    59    60    1
   135    49    47   am
   136   142   145    1
   137   153   154    1
   138   153   150    1
   139   154   156    1
   140   145   146    1
   141    47    46    1
   142    60    62   ar
   143    60    61   ar
   144   151   150    1
   145   151   152    2
   146   146   147    1
   147    62    64   ar
   148   150   149    1
   149    61    63   ar
   150    39    38    2
   151    46    45    1
   152    12    11    2
   153   147   148    1
   154    31    30    2
   155    15    13    1
   156    38    45   am
   157    38    37    1
   158    10    13    1
   159    10    11    1
   160    10     9    1
   161    13    14    1
   162    64    65   ar
   163    34    32    1
   164    63    65   ar
   165    30    29    1
   166    37    36    1
   167    37    40    1
   168    14    16    1
   169    44    42   am
   170    32    29    1
   171    32    33    1
   172    29    28    1
   173    40    41    1
   174    42    43    2
   175    42    41    1
   176    35    33    1
   177    20    19    2
   178    28    19   am
   179    19    18    1
   180     7     6    1
   181    18    17    1
   182    18    21    1
   183     6     8    1
   184     6     5    1
   185    22    21    1
   186    22    23    1
   187     2     5    1
   188     2     1    1
   189     2     3    1
   190     4     3    2
   191    23    24    1
   192    24    25    2
   193    25    26    1
   194    25    27    1
