@<TRIPOS>MOLECULE
tmp/3b1nB00.pdb
 147 133 0 0 0
SMALL
GASTEIGER

@<TRIPOS>ATOM
      1  N        -18.9590   31.7670   16.8300 N.3     7  SER7       -0.1217
      2  CA       -19.1620   33.0850   16.2180 C.3     7  SER7        0.1889
      3  C        -19.0370   33.0650   14.7040 C.2     7  SER7        0.2288
      4  O        -18.2620   32.2780   14.1230 O.2     7  SER7       -0.2866
      5  CB       -18.1720   34.0830   16.7910 C.3     7  SER7        0.2089
      6  OG       -16.8390   33.6530   16.5540 O.3     7  SER7       -0.2183
      7  N        -18.2270   36.1560   12.0220 N.3     9  ALA9       -0.1245
      8  CA       -17.8110   37.5700   12.2320 C.3     9  ALA9        0.1562
      9  C        -17.0010   38.0700   11.0970 C.2     9  ALA9        0.2260
     10  O        -16.4320   37.2970   10.3190 O.2     9  ALA9       -0.2867
     11  CB       -17.0050   37.6720   13.5780 C.3     9  ALA9        0.0290
     12  N        -13.6140   40.1820   10.4180 N.3    11  ASP11      -0.1239
     13  CA       -12.3770   40.4600   11.1300 C.3    11  ASP11       0.1674
     14  C        -11.6090   41.6180   10.5160 C.2    11  ASP11       0.2266
     15  O        -11.4400   41.6510    9.2970 O.2    11  ASP11      -0.2867
     16  CB       -11.4510   39.2310   11.1250 C.3    11  ASP11       0.1410
     17  CG       -11.9660   38.0940   11.9580 C.2    11  ASP11       0.3668
     18  OD1      -12.8710   38.2600   12.7830 O.co2  11  ASP11      -0.2456
     19  OD2      -11.3620   37.0230   11.8360 O.co2  11  ASP11      -0.2456
     20  N        -14.7420   34.7250   12.4640 N.3    47  GLY47      -0.1210
     21  CA       -15.5780   34.0730   13.4770 C.3    47  GLY47       0.1956
     22  C        -15.1730   32.6150   13.5590 C.2    47  GLY47       0.2612
     23  O        -14.8000   31.9670   12.5470 O.2    47  GLY47      -0.2717
     24  N        -15.2040   32.0880   14.7620 N.am   48  CYS48      -0.1970
     25  CA       -14.7090   30.7340   14.9980 C.3    48  CYS48       0.1712
     26  C        -15.4810   29.6740   14.2190 C.2    48  CYS48       0.2296
     27  O        -14.8820   28.7580   13.6600 O.2    48  CYS48      -0.2864
     28  CB       -14.7490   30.4610   16.4990 C.3    48  CYS48       0.0983
     29  SG       -13.5570   31.6030   17.3880 S.3    48  CYS48      -0.0798
     30  N        -14.4990   29.9690   10.5430 N.3    51  ASN51      -0.1240
     31  CA       -13.1280   29.4690   10.3010 C.3    51  ASN51       0.1653
     32  C        -13.0360   27.9550   10.3700 C.2    51  ASN51       0.2266
     33  O        -12.4060   27.3250    9.5200 O.2    51  ASN51      -0.2867
     34  CB       -12.1960   30.0700   11.3600 C.3    51  ASN51       0.1155
     35  CG       -12.1170   31.6070   11.2860 C.2    51  ASN51       0.2627
     36  OD1      -12.4580   32.2510   10.2920 O.2    51  ASN51      -0.2716
     37  ND2      -11.5680   32.1750   12.3620 N.am   51  ASN51      -0.0877
     38  N        -14.7030   41.8110   14.7420 N.3   102  ALA102     -0.1245
     39  CA       -13.5290   41.6900   15.6260 C.3   102  ALA102      0.1562
     40  C        -12.4420   42.5900   15.1160 C.2   102  ALA102      0.2260
     41  O        -12.1390   42.6050   13.9290 O.2   102  ALA102     -0.2867
     42  CB       -13.0170   40.2240   15.6110 C.3   102  ALA102      0.0290
     43  N         -8.7020   42.8450   15.6210 N.3   104  ILE104     -0.1245
     44  CA        -7.6770   41.9480   16.1550 C.3   104  ILE104      0.1561
     45  C         -6.2690   42.5030   15.9270 C.2   104  ILE104      0.2260
     46  O         -5.8870   42.7310   14.7980 O.2   104  ILE104     -0.2867
     47  CB        -7.8000   40.5840   15.3970 C.3   104  ILE104      0.0252
     48  CG1       -9.2260   40.0520   15.5070 C.3   104  ILE104      0.0019
     49  CG2       -6.7190   39.5460   15.8920 C.3   104  ILE104      0.0019
     50  CD1       -9.4620   38.7380   14.6380 C.3   104  ILE104      0.0001
     51  N         -2.6330   37.5770   20.4160 N.3   112  GLN112     -0.1196
     52  CA        -3.7960   38.3340   19.9050 C.3   112  GLN112      0.1782
     53  C         -4.3590   39.2190   21.0290 C.2   112  GLN112      0.2306
     54  O         -4.5850   38.6850   22.1230 O.2   112  GLN112     -0.2863
     55  CB        -4.9230   37.3600   19.4760 C.2   112  GLN112      0.0051
     56  CG        -4.6500   36.5750   18.2040 C.2   112  GLN112      0.0584
     57  CD        -5.8220   35.6950   17.7110 C.2   112  GLN112      0.2840
     58  OE1       -6.9540   36.1550   17.5020 O.2   112  GLN112     -0.2667
     59  NE2       -5.5210   34.4230   17.4710 N.am  112  GLN112     -0.0837
     60  N         -7.8890   41.3610   21.1030 N.3   114  THR114     -0.1218
     61  CA        -9.0460   41.5760   20.2180 C.3   114  THR114      0.1862
     62  C        -10.1240   42.3880   20.9380 C.2   114  THR114      0.2287
     63  O        -10.5130   42.0500   22.0560 O.2   114  THR114     -0.2866
     64  CB        -9.6180   40.2220   19.8070 C.3   114  THR114      0.1770
     65  OG1       -8.6430   39.5440   19.0050 O.3   114  THR114     -0.2211
     66  CG2      -10.9420   40.3730   19.0230 C.3   114  THR114      0.0375
     67  N        -13.9390   43.0620   20.5540 N.3   116  PHE116     -0.1241
     68  CA       -14.9820   42.3180   19.8350 C.3   116  PHE116      0.1605
     69  C        -16.3110   43.0220   20.0200 C.2   116  PHE116      0.2264
     70  O        -16.7380   43.2230   21.1590 O.2   116  PHE116     -0.2867
     71  CB       -15.0030   40.8600   20.3460 C.3   116  PHE116      0.0534
     72  CG       -15.7180   39.9210   19.4340 C.ar  116  PHE116     -0.0203
     73  CD1      -15.0390   39.3160   18.3630 C.ar  116  PHE116     -0.0042
     74  CD2      -17.0730   39.6530   19.6500 C.ar  116  PHE116     -0.0042
     75  CE1      -15.7340   38.4470   17.5290 C.ar  116  PHE116     -0.0003
     76  CE2      -17.7720   38.8080   18.7860 C.ar  116  PHE116     -0.0003
     77  CZ       -17.0780   38.1950   17.7450 C.ar  116  PHE116     -0.0000
     78  N        -24.1360   38.2680   17.2890 N.3   121  MET121     -0.1245
     79  CA       -23.6940   37.1990   18.1360 C.3   121  MET121      0.1570
     80  C        -24.3160   37.1770   19.5330 C.2   121  MET121      0.2261
     81  O        -24.4420   36.1110   20.1500 O.2   121  MET121     -0.2867
     82  CB       -22.1470   37.1920   18.2040 C.3   121  MET121      0.0387
     83  CG       -21.5870   35.9430   18.9480 C.3   121  MET121      0.0595
     84  SD       -19.8130   36.0460   19.3130 S.3   121  MET121     -0.1393
     85  CE       -19.7960   36.9910   20.8340 C.3   121  MET121      0.0692
     86  N        -16.0570   29.7440   20.7690 N.3   142  PRO142     -0.2102
     87  CA       -16.3720   31.0410   21.3350 C.3   142  PRO142      0.1504
     88  C        -17.5780   31.6470   20.6260 C.2   142  PRO142      0.2575
     89  O        -17.7010   31.5670   19.3920 O.2   142  PRO142     -0.2718
     90  CB       -15.1300   31.8670   21.0300 C.3   142  PRO142      0.0282
     91  CG       -14.0160   30.8410   21.1200 C.3   142  PRO142      0.0208
     92  CD       -14.6350   29.6450   20.3960 C.3   142  PRO142      0.0893
     93  N        -18.4410   32.2630   21.4110 N.am  143  ASP143     -0.1974
     94  CA       -19.7690   32.6660   20.9440 C.3   143  ASP143      0.1708
     95  C        -20.3890   33.5000   22.0400 C.2   143  ASP143      0.2293
     96  O        -19.7700   33.7200   23.0710 O.2   143  ASP143     -0.2864
     97  CB       -20.6310   31.3900   20.7440 C.3   143  ASP143      0.1436
     98  CG       -21.6760   31.5100   19.6670 C.2   143  ASP143      0.3671
     99  OD1      -22.0900   32.5970   19.2570 O.co2 143  ASP143     -0.2456
    100  OD2      -22.0840   30.4290   19.1830 O.co2 143  ASP143     -0.2456
    101  N        -11.6100   32.3050   23.3330 N.3   168  GLN168     -0.1231
    102  CA       -11.7520   33.7020   23.7010 C.3   168  GLN168      0.1698
    103  C        -12.9520   34.0130   24.5680 C.2   168  GLN168      0.2592
    104  O        -13.0830   35.1330   25.0840 O.2   168  GLN168     -0.2718
    105  CB       -11.8410   34.5130   22.4150 C.3   168  GLN168      0.0381
    106  CG       -10.5630   34.4950   21.6400 C.3   168  GLN168      0.0905
    107  CD       -10.6300   33.6110   20.4290 C.2   168  GLN168      0.2608
    108  OE1      -11.1590   32.4830   20.4620 O.2   168  GLN168     -0.2717
    109  NE2      -10.0640   34.1110   19.3350 N.am  168  GLN168     -0.0878
    110  N        -13.8410   33.0360   24.7290 N.am  169  GLY169     -0.1957
    111  CA       -15.0520   33.2270   25.5200 C.3   169  GLY169      0.1869
    112  C        -14.8170   33.0010   26.9930 C.2   169  GLY169      0.2309
    113  O        -15.7150   33.2350   27.8180 O.2   169  GLY169     -0.2863
    114  N        -16.1050   35.0880   30.1750 N.3   172  LEU172     -0.1245
    115  CA       -17.5370   35.0660   30.4510 C.3   172  LEU172      0.1561
    116  C        -17.9330   33.9270   31.4190 C.2   172  LEU172      0.2260
    117  O        -19.0440   33.9390   31.9940 O.2   172  LEU172     -0.2867
    118  CB       -18.3130   34.9530   29.1420 C.3   172  LEU172      0.0270
    119  CG       -17.9260   35.8510   27.9460 C.3   172  LEU172      0.0019
    120  CD1      -18.6460   35.4660   26.6510 C.3   172  LEU172      0.0001
    121  CD2      -18.1610   37.3080   28.2740 C.3   172  LEU172      0.0001
    122  N         -3.7480   34.5650   12.8090 N.3   248  THR248     -0.1203
    123  CA        -5.1450   34.6100   13.2020 C.3   248  THR248      0.1994
    124  C         -5.9180   33.4620   12.5420 C.2   248  THR248      0.2618
    125  O         -5.9470   33.3560   11.3290 O.2   248  THR248     -0.2717
    126  CB        -5.8340   35.9030   12.7130 C.3   248  THR248      0.1784
    127  OG1       -5.0800   36.9890   13.2080 O.3   248  THR248     -0.2211
    128  CG2       -7.2490   36.0140   13.2890 C.3   248  THR248      0.0376
    129  N         -6.4920   32.6050   13.4030 N.am  249  GLY249     -0.1956
    130  CA        -7.3210   31.5100   12.9180 C.3   249  GLY249      0.1869
    131  C         -6.5260   30.2240   12.8540 C.2   249  GLY249      0.2309
    132  O         -7.0630   29.2390   12.3840 O.2   249  GLY249     -0.2863
    133  N         -8.2960   27.5620   14.7440 N.3   252  ASP252     -0.1239
    134  CA        -9.5410   27.1410   14.1060 C.3   252  ASP252      0.1674
    135  C         -9.2780   26.2080   12.9260 C.2   252  ASP252      0.2266
    136  O        -10.0380   25.2340   12.7090 O.2   252  ASP252     -0.2867
    137  CB       -10.3010   28.3870   13.6460 C.3   252  ASP252      0.1410
    138  CG       -10.9120   29.1550   14.8120 C.2   252  ASP252      0.3668
    139  OD1      -11.0980   28.5860   15.8990 O.co2 252  ASP252     -0.2456
    140  OD2      -11.1670   30.3550   14.6480 O.co2 252  ASP252     -0.2456
    141  N         -8.0980   34.5580    8.3310 N.3   288  PRO288     -0.2116
    142  CA        -8.2900   33.1690    8.7930 C.3   288  PRO288      0.1372
    143  C         -8.7330   32.2100    7.6890 C.2   288  PRO288      0.2244
    144  O         -8.5690   31.0040    7.9010 O.2   288  PRO288     -0.2868
    145  CB        -9.3610   33.2930    9.8950 C.3   288  PRO288      0.0268
    146  CG        -9.9680   34.6350    9.6990 C.3   288  PRO288      0.0207
    147  CD        -9.0120   35.5210    8.9940 C.3   288  PRO288      0.0892
@<TRIPOS>BOND
     1   143   144    2
     2   143   142    1
     3   141   142    1
     4   141   147    1
     5   142   145    1
     6   147   146    1
     7    15    14    2
     8    33    32    2
     9   146   145    1
    10    36    35    2
    11    31    32    1
    12    31    30    1
    13    31    34    1
    14    10     9    2
    15    12    13    1
    16    14    13    1
    17     9     8    1
    18    16    13    1
    19    16    17    1
    20    35    34    1
    21    35    37   am
    22   125   124    2
    23    19    17   ar
    24    17    18   ar
    25     7     8    1
    26     8    11    1
    27   132   131    2
    28    20    21    1
    29   124   123    1
    30   124   129   am
    31    23    22    2
    32   136   135    2
    33   126   123    1
    34   126   127    1
    35   126   128    1
    36   122   123    1
    37   131   130    1
    38   130   129    1
    39   135   134    1
    40    21    22    1
    41    22    24   am
    42   137   134    1
    43   137   138    1
    44    27    26    2
    45    41    40    2
    46   134   133    1
    47     4     3    2
    48    26    25    1
    49    50    48    1
    50   140   138   ar
    51     3     2    1
    52    38    39    1
    53    24    25    1
    54    46    45    2
    55   138   139   ar
    56    25    28    1
    57    40    39    1
    58    47    48    1
    59    47    49    1
    60    47    44    1
    61    42    39    1
    62    43    44    1
    63    45    44    1
    64     2     5    1
    65     2     1    1
    66    28    29    1
    67     6     5    1
    68    78    79    1
    69    59    57   am
    70    58    57    2
    71    75    77   ar
    72    75    73   ar
    73    57    56    1
    74    77    76   ar
    75    79    82    1
    76    79    80    1
    77    82    83    1
    78    56    55    2
    79    73    72   ar
    80    76    74   ar
    81    83    84    1
    82    65    64    1
    83    66    64    1
    84   100    98   ar
    85    99    98   ar
    86    84    85    1
    87   109   107   am
    88    89    88    2
    89    72    74   ar
    90    72    71    1
    91    55    52    1
    92    80    81    2
    93    98    97    1
    94    64    61    1
    95    68    69    1
    96    68    71    1
    97    68    67    1
    98    52    51    1
    99    52    53    1
   100    69    70    2
   101    61    62    1
   102    61    60    1
   103    92    86    1
   104    92    91    1
   105   107   108    2
   106   107   106    1
   107    88    87    1
   108    88    93   am
   109    97    94    1
   110    86    87    1
   111    62    63    2
   112    94    93    1
   113    94    95    1
   114    53    54    2
   115    90    91    1
   116    90    87    1
   117   106   105    1
   118    95    96    2
   119   105   102    1
   120   101   102    1
   121   102   103    1
   122   103   110   am
   123   103   104    2
   124   110   111    1
   125   111   112    1
   126   120   119    1
   127   112   113    2
   128   119   121    1
   129   119   118    1
   130   118   115    1
   131   114   115    1
   132   115   116    1
   133   116   117    2
