@<TRIPOS>MOLECULE
tmp/3b1nB01.pdb
 172 158 0 0 0
SMALL
GASTEIGER

@<TRIPOS>ATOM
      1  N          3.6890   38.1140   15.8250 N.3   108  LEU108     -0.1245
      2  CA         4.1340   36.9440   15.0400 C.3   108  LEU108      0.1561
      3  C          4.1380   35.6720   15.8750 C.2   108  LEU108      0.2260
      4  O          4.0120   34.5840   15.2850 O.2   108  LEU108     -0.2867
      5  CB         5.4620   37.2100   14.3200 C.3   108  LEU108      0.0270
      6  CG         5.3650   38.3990   13.3420 C.3   108  LEU108      0.0019
      7  CD1        6.7530   38.7740   12.7230 C.3   108  LEU108      0.0001
      8  CD2        4.2450   38.3690   12.2590 C.3   108  LEU108      0.0001
      9  N          1.8400   34.7200   17.6590 N.3   110  ASN110     -0.1240
     10  CA         0.4610   34.2770   17.6650 C.3   110  ASN110      0.1653
     11  C         -0.2210   34.8580   18.9160 C.2   110  ASN110      0.2266
     12  O         -1.2660   34.3750   19.3680 O.2   110  ASN110     -0.2867
     13  CB         0.3660   32.7140   17.6390 C.3   110  ASN110      0.1155
     14  CG         1.0830   32.0320   16.4070 C.2   110  ASN110      0.2627
     15  OD1        0.8990   30.8290   16.2020 O.2   110  ASN110     -0.2716
     16  ND2        1.8500   32.7810   15.6180 N.am  110  ASN110     -0.0877
     17  N         -2.6330   37.5770   20.4160 N.3   112  GLN112     -0.1196
     18  CA        -3.7960   38.3340   19.9050 C.3   112  GLN112      0.1782
     19  C         -4.3590   39.2190   21.0290 C.2   112  GLN112      0.2306
     20  O         -4.5850   38.6850   22.1230 O.2   112  GLN112     -0.2863
     21  CB        -4.9230   37.3600   19.4760 C.2   112  GLN112      0.0051
     22  CG        -4.6500   36.5750   18.2040 C.2   112  GLN112      0.0584
     23  CD        -5.8220   35.6950   17.7110 C.2   112  GLN112      0.2840
     24  OE1       -6.9540   36.1550   17.5020 O.2   112  GLN112     -0.2667
     25  NE2       -5.5210   34.4230   17.4710 N.am  112  GLN112     -0.0837
     26  N         -5.6260   26.5260   23.2920 N.3   191  ASN191     -0.1240
     27  CA        -4.1910   26.7860   23.2430 C.3   191  ASN191      0.1653
     28  C         -3.6000   26.8100   24.6440 C.2   191  ASN191      0.2266
     29  O         -4.3360   26.6900   25.6220 O.2   191  ASN191     -0.2867
     30  CB        -3.7940   28.0030   22.4140 C.3   191  ASN191      0.1155
     31  CG        -4.1200   29.3250   23.0610 C.2   191  ASN191      0.2627
     32  OD1       -4.0820   29.4890   24.2580 O.2   191  ASN191     -0.2716
     33  ND2       -4.4030   30.3060   22.2140 N.am  191  ASN191     -0.0877
     34  N         -4.8590   29.5460   27.0600 N.3   194  GLU194     -0.1245
     35  CA        -6.2030   29.2570   27.5140 C.3   194  GLU194      0.1567
     36  C         -6.2200   28.0830   28.4910 C.2   194  GLU194      0.2260
     37  O         -7.0120   28.0770   29.4450 O.2   194  GLU194     -0.2867
     38  CB        -7.0770   28.9540   26.2790 C.3   194  GLU194      0.0388
     39  CG        -7.1960   30.1250   25.2790 C.3   194  GLU194      0.1160
     40  CD        -7.6880   29.6870   23.8460 C.2   194  GLU194      0.3649
     41  OE1       -7.7470   28.4540   23.4210 O.co2 194  GLU194     -0.2457
     42  OE2       -8.0810   30.6450   23.1270 O.co2 194  GLU194     -0.2457
     43  N         -2.8030   23.2680   22.0380 N.3   219  THR219     -0.1218
     44  CA        -1.9460   23.7010   20.9330 C.3   219  THR219      0.1862
     45  C         -0.9170   24.6720   21.4990 C.2   219  THR219      0.2287
     46  O         -1.2160   25.4310   22.4560 O.2   219  THR219     -0.2866
     47  CB        -2.7600   24.3370   19.7990 C.3   219  THR219      0.1770
     48  OG1       -3.3330   25.5750   20.2460 O.3   219  THR219     -0.2211
     49  CG2       -3.8980   23.3900   19.3980 C.3   219  THR219      0.0375
     50  N          1.2870   26.7260   19.3480 N.3   221  GLY221     -0.1210
     51  CA         1.8360   27.5360   18.2680 C.3   221  GLY221      0.1956
     52  C          2.8240   26.8120   17.3700 C.2   221  GLY221      0.2611
     53  O          2.5700   25.6540   16.9460 O.2   221  GLY221     -0.2717
     54  N          3.9810   27.4140   17.1150 N.am  222  GLU222     -0.1979
     55  CA         4.9330   26.7860   16.1870 C.3   222  GLU222      0.1602
     56  C          5.5760   25.5620   16.8210 C.2   222  GLU222      0.2287
     57  O          6.2950   24.8330   16.1190 O.2   222  GLU222     -0.2864
     58  CB         6.0370   27.7690   15.7100 C.3   222  GLU222      0.0415
     59  CG         7.0330   28.1290   16.7930 C.3   222  GLU222      0.1163
     60  CD         8.1540   28.9930   16.2450 C.2   222  GLU222      0.3649
     61  OE1        9.3500   28.6150   16.3720 O.co2 222  GLU222     -0.2457
     62  OE2        7.8380   30.0460   15.6680 O.co2 222  GLU222     -0.2457
     63  N          3.8600   23.0770   17.9020 N.3   224  GLY224     -0.1210
     64  CA         2.9780   21.9020   17.6630 C.3   224  GLY224      0.1956
     65  C          1.8690   21.8000   18.6760 C.2   224  GLY224      0.2611
     66  O          1.2090   22.8130   18.9870 O.2   224  GLY224     -0.2717
     67  N          1.5670   20.5830   19.1420 N.am  225  ALA225     -0.1979
     68  CA         0.4470   20.4080   20.0720 C.3   225  ALA225      0.1597
     69  C          0.5970   19.1170   20.8330 C.2   225  ALA225      0.2287
     70  O          1.3970   18.2700   20.4090 O.2   225  ALA225     -0.2864
     71  CB        -0.8980   20.3650   19.2660 C.3   225  ALA225      0.0319
     72  N          4.7450   20.4250   14.8710 N.3   238  ALA238     -0.1231
     73  CA         4.3600   21.4090   13.8810 C.3   238  ALA238      0.1694
     74  C          4.8150   21.0310   12.4840 C.2   238  ALA238      0.2592
     75  O          5.8030   20.3010   12.3130 O.2   238  ALA238     -0.2718
     76  CB         4.9380   22.8030   14.2560 C.3   238  ALA238      0.0304
     77  N          4.1230   21.5380   11.4820 N.am  239  VAL239     -0.1966
     78  CA         4.5800   21.4890   10.1010 C.3   239  VAL239      0.1727
     79  C          5.2640   22.8210    9.8300 C.2   239  VAL239      0.2616
     80  O          4.6850   23.8660   10.1150 O.2   239  VAL239     -0.2715
     81  CB         3.3970   21.2560    9.1100 C.3   239  VAL239      0.0290
     82  CG1        3.8220   21.2830    7.6580 C.3   239  VAL239      0.0023
     83  CG2        2.8060   19.8990    9.3680 C.3   239  VAL239      0.0023
     84  N          6.4830   22.7820    9.2960 N.am  240  ARG240     -0.1963
     85  CA         7.1770   24.0360    8.9290 C.3   240  ARG240      0.1729
     86  C          6.3440   24.8540    7.9760 C.2   240  ARG240      0.2616
     87  O          5.9520   24.3860    6.9100 O.2   240  ARG240     -0.2715
     88  CB         8.5570   23.7120    8.2980 C.3   240  ARG240      0.0348
     89  CG         9.4200   24.9380    8.0250 C.3   240  ARG240      0.0492
     90  CD        10.8950   24.6400    8.2600 C.3   240  ARG240      0.2205
     91  NE        11.4510   25.5940    9.2270 N.pl3 240  ARG240     -0.0865
     92  CZ        11.5120   25.4000   10.5510 C.cat 240  ARG240      0.5346
     93  NH1       12.0260   26.3420   11.3420 N.pl3 240  ARG240      0.1354
     94  NH2       11.0670   24.2690   11.0960 N.pl3 240  ARG240      0.1354
     95  N          6.0840   26.1060    8.3600 N.am  241  ALA241     -0.1977
     96  CA         5.2960   27.0050    7.5370 C.3   241  ALA241      0.1597
     97  C          6.0930   27.4480    6.3380 C.2   241  ALA241      0.2287
     98  O          7.2840   27.7690    6.4960 O.2   241  ALA241     -0.2864
     99  CB         4.9300   28.2470    8.3640 C.3   241  ALA241      0.0319
    100  N          5.3390   32.8920    7.3230 N.3   244  VAL244     -0.1245
    101  CA         4.4320   33.3410    8.3800 C.3   244  VAL244      0.1561
    102  C          3.9010   34.7180    8.0560 C.2   244  VAL244      0.2260
    103  O          4.6190   35.7530    8.1330 O.2   244  VAL244     -0.2867
    104  CB         5.1170   33.3650    9.7760 C.3   244  VAL244      0.0252
    105  CG1        4.1750   33.9420   10.8560 C.3   244  VAL244      0.0019
    106  CG2        5.6190   31.9150   10.1560 C.3   244  VAL244      0.0019
    107  N         -1.0750   34.7120   11.9520 N.2   247  PRO247     -0.2584
    108  CA        -1.5150   33.5390   12.7470 C.3   247  PRO247      0.1895
    109  C         -2.9960   33.5100   13.0980 C.2   247  PRO247      0.2359
    110  O         -3.4420   32.4980   13.6880 O.2   247  PRO247     -0.2858
    111  CB        -0.7250   33.6340   14.0440 C.2   247  PRO247      0.0071
    112  CG        -0.0470   34.9330   14.0360 C.2   247  PRO247      0.0180
    113  CD        -0.1800   35.6320   12.7040 C.2   247  PRO247      0.0937
    114  N         -6.4920   32.6050   13.4030 N.3   249  GLY249     -0.1210
    115  CA        -7.3210   31.5100   12.9180 C.3   249  GLY249      0.1956
    116  C         -6.5260   30.2240   12.8540 C.2   249  GLY249      0.2612
    117  O         -7.0630   29.2390   12.3840 O.2   249  GLY249     -0.2717
    118  N         -5.2530   30.2190   13.2650 N.am  250  CYS250     -0.1956
    119  CA        -4.5000   28.9140   13.1770 C.3   250  CYS250      0.1843
    120  C         -5.1510   27.8300   14.0140 C.2   250  CYS250      0.2626
    121  O         -5.2830   26.6770   13.5210 O.2   250  CYS250     -0.2714
    122  CB        -3.0790   29.0690   13.6550 C.3   250  CYS250      0.0997
    123  SG        -1.9830   29.8130   12.4250 S.3   250  CYS250     -0.0797
    124  N         -5.6220   28.1670   15.2310 N.am  251  GLY251     -0.1954
    125  CA        -6.2630   27.1650   16.0810 C.3   251  GLY251      0.1869
    126  C         -7.5650   26.6810   15.4140 C.2   251  GLY251      0.2309
    127  O         -7.9350   25.5100   15.5470 O.2   251  GLY251     -0.2863
    128  N         -6.7200   24.2340   12.6950 N.3   254  PHE254     -0.1227
    129  CA        -6.3620   23.0100   13.4380 C.3   254  PHE254      0.1736
    130  C         -7.6150   22.2620   13.8620 C.2   254  PHE254      0.2595
    131  O         -7.7380   21.0500   13.6560 O.2   254  PHE254     -0.2718
    132  CB        -5.4660   23.4340   14.6360 C.3   254  PHE254      0.0547
    133  CG        -4.9500   22.2900   15.4690 C.ar  254  PHE254     -0.0202
    134  CD1       -3.6120   21.8520   15.3640 C.ar  254  PHE254     -0.0042
    135  CD2       -5.7800   21.6900   16.4150 C.ar  254  PHE254     -0.0042
    136  CE1       -3.1660   20.7770   16.2050 C.ar  254  PHE254     -0.0003
    137  CE2       -5.3260   20.6670   17.2350 C.ar  254  PHE254     -0.0003
    138  CZ        -4.0230   20.1990   17.1070 C.ar  254  PHE254     -0.0000
    139  N         -8.5670   22.9660   14.4500 N.am  255  ARG255     -0.1980
    140  CA        -9.8040   22.2770   14.9050 C.3   255  ARG255      0.1597
    141  C        -10.5760   21.6730   13.7320 C.2   255  ARG255      0.2287
    142  O        -11.1230   20.5610   13.8970 O.2   255  ARG255     -0.2864
    143  CB       -10.6770   23.2810   15.6850 C.3   255  ARG255      0.0334
    144  CG       -10.1380   23.4600   17.0910 C.3   255  ARG255      0.0492
    145  CD       -10.5620   24.8190   17.6200 C.3   255  ARG255      0.2205
    146  NE       -10.0670   25.0870   18.9600 N.pl3 255  ARG255     -0.0865
    147  CZ        -8.7760   25.2640   19.2850 C.cat 255  ARG255      0.5346
    148  NH1       -7.8010   25.0970   18.4090 N.pl3 255  ARG255      0.1354
    149  NH2       -8.4620   25.5410   20.5180 N.pl3 255  ARG255      0.1354
    150  N         -2.4290   19.8980   12.6230 N.3   276  SER276     -0.1217
    151  CA        -1.1620   20.6440   12.6310 C.3   276  SER276      0.1889
    152  C         -0.8330   21.1540   11.2280 C.2   276  SER276      0.2288
    153  O         -0.4870   22.3510   11.0300 O.2   276  SER276     -0.2866
    154  CB        -0.0880   19.7070   13.1340 C.3   276  SER276      0.2089
    155  OG         1.1210   20.4460   13.2100 O.3   276  SER276     -0.2183
    156  N         -3.1000   24.1260   10.3620 N.3   279  GLY279     -0.1210
    157  CA        -2.5760   25.3240   11.0180 C.3   279  GLY279      0.1956
    158  C         -1.4370   25.9460   10.2260 C.2   279  GLY279      0.2611
    159  O         -1.3620   27.1980   10.0500 O.2   279  GLY279     -0.2717
    160  N         -0.5380   25.1050    9.7300 N.am  280  ALA280     -0.1979
    161  CA         0.5970   25.6180    8.9000 C.3   280  ALA280      0.1597
    162  C          0.2060   26.1310    7.5630 C.2   280  ALA280      0.2287
    163  O          0.8270   27.0900    7.0580 O.2   280  ALA280     -0.2864
    164  CB         1.6790   24.5240    8.7610 C.3   280  ALA280      0.0319
    165  N         -1.3080   29.7350    8.1340 N.3   283  ILE283     -0.1245
    166  CA        -0.4670   30.8860    8.5830 C.3   283  ILE283      0.1561
    167  C          0.2840   31.5410    7.4250 C.2   283  ILE283      0.2260
    168  O          0.7250   32.6980    7.5560 O.2   283  ILE283     -0.2867
    169  CB         0.4580   30.4500    9.7290 C.3   283  ILE283      0.0252
    170  CG1        0.9490   31.6890   10.5330 C.3   283  ILE283      0.0019
    171  CG2        1.6380   29.6000    9.1590 C.3   283  ILE283      0.0019
    172  CD1        1.6680   31.2660   11.8190 C.3   283  ILE283      0.0001
@<TRIPOS>BOND
     1    97    98    2
     2    97    96    1
     3    87    86    2
     4   163   162    2
     5   100   101    1
     6   167   168    2
     7   167   166    1
     8    96    95    1
     9    96    99    1
    10   162   161    1
    11    82    81    1
    12    86    95   am
    13    86    85    1
    14    89    90    1
    15    89    88    1
    16   102   103    2
    17   102   101    1
    18   165   166    1
    19    90    91    1
    20    88    85    1
    21   101   104    1
    22   166   169    1
    23   164   161    1
    24   161   160    1
    25    85    84    1
    26    81    83    1
    27    81    78    1
    28   171   169    1
    29    91    92    2
    30    84    79   am
    31   169   170    1
    32   160   158   am
    33   104   106    1
    34   104   105    1
    35    79    78    1
    36    79    80    2
    37   159   158    2
    38    78    77    1
    39   158   157    1
    40   156   157    1
    41   170   172    1
    42    92    94    1
    43    92    93    1
    44   153   152    2
    45   152   151    1
    46    77    74   am
    47   107   113    2
    48   107   108    1
    49     8     6    1
    50    75    74    2
    51   117   116    2
    52   123   122    1
    53    74    73    1
    54   150   151    1
    55   151   154    1
    56   128   129    1
    57   113   112    1
    58     7     6    1
    59   108   109    1
    60   108   111    1
    61   116   115    1
    62   116   118   am
    63   115   114    1
    64   109   110    2
    65   154   155    1
    66   119   118    1
    67   119   122    1
    68   119   120    1
    69     6     5    1
    70   129   130    1
    71   129   132    1
    72   121   120    2
    73   131   130    2
    74   141   142    2
    75   141   140    1
    76   130   139   am
    77    73    76    1
    78    73    72    1
    79   120   124   am
    80   112   111    2
    81     5     2    1
    82   139   140    1
    83   132   133    1
    84   140   143    1
    85     2     1    1
    86     2     3    1
    87   124   125    1
    88     4     3    2
    89   134   133   ar
    90   134   136   ar
    91   126   127    2
    92   126   125    1
    93   133   135   ar
    94    16    14   am
    95    62    60   ar
    96   143   144    1
    97    58    55    1
    98    58    59    1
    99    57    56    2
   100    55    56    1
   101    55    54    1
   102    15    14    2
   103   136   138   ar
   104    60    61   ar
   105    60    59    1
   106    14    13    1
   107   135   137   ar
   108    53    52    2
   109   144   145    1
   110   138   137   ar
   111    54    52   am
   112    52    51    1
   113    25    23   am
   114    24    23    2
   115   145   146    1
   116    13    10    1
   117     9    10    1
   118    64    63    1
   119    64    65    1
   120    10    11    1
   121    23    22    1
   122    22    21    2
   123    51    50    1
   124   148   147    1
   125    65    66    2
   126    65    67   am
   127    11    12    2
   128   146   147    2
   129    67    68    1
   130    71    68    1
   131   147   149    1
   132    49    47    1
   133    21    18    1
   134    47    48    1
   135    47    44    1
   136    18    17    1
   137    18    19    1
   138    68    69    1
   139    70    69    2
   140    44    45    1
   141    44    43    1
   142    19    20    2
   143    45    46    2
   144    33    31   am
   145    30    31    1
   146    30    27    1
   147    31    32    2
   148    42    40   ar
   149    27    26    1
   150    27    28    1
   151    41    40   ar
   152    40    39    1
   153    28    29    2
   154    39    38    1
   155    38    35    1
   156    34    35    1
   157    35    36    1
   158    36    37    2
