@<TRIPOS>MOLECULE
tmp/3b1qB02.pdb
 90 84 0 0 0
SMALL
GASTEIGER

@<TRIPOS>ATOM
      1  N         38.6210   33.7350   13.1090 N.3   233  VAL233     -0.1231
      2  CA        38.2420   32.3330   13.2000 C.3   233  VAL233      0.1692
      3  C         36.7270   32.2230   13.0310 C.2   233  VAL233      0.2592
      4  O         35.9720   32.9120   13.7180 O.2   233  VAL233     -0.2718
      5  CB        38.6350   31.7310   14.5660 C.3   233  VAL233      0.0266
      6  CG1       38.2970   30.2480   14.6350 C.3   233  VAL233      0.0020
      7  CG2       40.1090   31.9440   14.8520 C.3   233  VAL233      0.0020
      8  N         36.2880   31.3380   12.1350 N.am  234  ARG234     -0.1966
      9  CA        34.8750   31.1560   11.8860 C.3   234  ARG234      0.1729
     10  C         34.1940   30.6020   13.1470 C.2   234  ARG234      0.2616
     11  O         34.6970   29.6710   13.7820 O.2   234  ARG234     -0.2715
     12  CB        34.6850   30.2140   10.7030 C.3   234  ARG234      0.0348
     13  CG        33.3950   30.4120    9.9060 C.3   234  ARG234      0.0492
     14  CD        33.6670   30.0260    8.4240 C.3   234  ARG234      0.2205
     15  NE        32.4890   29.6460    7.6380 N.pl3 234  ARG234     -0.0865
     16  CZ        32.4690   29.5670    6.3010 C.cat 234  ARG234      0.5346
     17  NH1       33.5590   29.8440    5.5900 N.pl3 234  ARG234      0.1354
     18  NH2       31.3570   29.2070    5.6610 N.pl3 234  ARG234      0.1354
     19  N         33.0600   31.1940   13.5130 N.am  235  ALA235     -0.1963
     20  CA        32.2660   30.7080   14.6430 C.3   235  ALA235      0.1728
     21  C         31.5300   29.4170   14.2900 C.2   235  ALA235      0.2616
     22  O         31.1370   29.2000   13.1600 O.2   235  ALA235     -0.2715
     23  CB        31.2780   31.7430   15.0620 C.3   235  ALA235      0.0334
     24  N         31.2670   28.5940   15.2980 N.am  236  GLU236     -0.1977
     25  CA        30.4900   27.3690   15.1230 C.3   236  GLU236      0.1602
     26  C         29.0030   27.6520   15.0560 C.2   236  GLU236      0.2287
     27  O         28.2400   26.8550   14.5750 O.2   236  GLU236     -0.2864
     28  CB        30.7970   26.3750   16.2700 C.3   236  GLU236      0.0415
     29  CG        32.0870   25.6180   15.9820 C.3   236  GLU236      0.1163
     30  CD        32.6250   24.7400   17.1260 C.2   236  GLU236      0.3649
     31  OE1       32.2670   24.9300   18.3210 O.co2 236  GLU236     -0.2457
     32  OE2       33.4610   23.8720   16.7560 O.co2 236  GLU236     -0.2457
     33  N         40.6560   33.4540   18.5260 N.3   271  LEU271     -0.1245
     34  CA        39.9740   32.1900   18.8150 C.3   271  LEU271      0.1561
     35  C         38.9980   32.3680   19.9720 C.2   271  LEU271      0.2260
     36  O         37.8600   31.8690   19.9310 O.2   271  LEU271     -0.2867
     37  CB        40.9960   31.0910   19.1200 C.3   271  LEU271      0.0270
     38  CG        40.5190   29.7300   19.6060 C.3   271  LEU271      0.0019
     39  CD1       39.5400   29.0850   18.5730 C.3   271  LEU271      0.0001
     40  CD2       41.7440   28.8350   19.7660 C.3   271  LEU271      0.0001
     41  N         35.8500   34.0150   18.9210 N.3   274  ALA274     -0.1231
     42  CA        35.0170   33.1420   18.1100 C.3   274  ALA274      0.1694
     43  C         34.2690   32.1120   18.9860 C.2   274  ALA274      0.2591
     44  O         33.1170   31.7800   18.7180 O.2   274  ALA274     -0.2718
     45  CB        35.8280   32.3880   17.0420 C.3   274  ALA274      0.0304
     46  N         34.9420   31.6120   20.0120 N.am  275  LEU275     -0.1980
     47  CA        34.2680   30.7020   20.9420 C.3   275  LEU275      0.1596
     48  C         33.1140   31.4190   21.7020 C.2   275  LEU275      0.2287
     49  O         32.0070   30.8960   21.8490 O.2   275  LEU275     -0.2864
     50  CB        35.2900   30.1020   21.9300 C.3   275  LEU275      0.0297
     51  CG        36.2470   29.1120   21.2460 C.3   275  LEU275      0.0022
     52  CD1       37.3490   28.6910   22.2270 C.3   275  LEU275      0.0001
     53  CD2       35.4950   27.9170   20.8030 C.3   275  LEU275      0.0001
     54  N         41.1760   21.9100   25.1230 N.3   291  GLU291     -0.1245
     55  CA        40.3260   22.2210   23.9560 C.3   291  GLU291      0.1567
     56  C         40.8250   23.4490   23.1830 C.2   291  GLU291      0.2260
     57  O         40.8730   23.4370   21.9460 O.2   291  GLU291     -0.2867
     58  CB        38.8670   22.4520   24.3990 C.3   291  GLU291      0.0388
     59  CG        37.9770   23.0910   23.2820 C.3   291  GLU291      0.1160
     60  CD        36.5830   23.4040   23.7860 C.2   291  GLU291      0.3649
     61  OE1       35.8290   24.1190   23.0720 O.co2 291  GLU291     -0.2457
     62  OE2       36.2310   22.9460   24.8940 O.co2 291  GLU291     -0.2457
     63  N         43.9140   22.5610   21.2270 N.3   294  ALA294     -0.1231
     64  CA        43.6070   21.6830   20.1120 C.3   294  ALA294      0.1694
     65  C         42.9470   22.5000   18.9860 C.2   294  ALA294      0.2591
     66  O         43.2410   22.2880   17.8250 O.2   294  ALA294     -0.2718
     67  CB        42.6930   20.5670   20.5450 C.3   294  ALA294      0.0304
     68  N         42.0020   23.3600   19.3600 N.am  295  ARG295     -0.1980
     69  CA        41.3140   24.2240   18.3700 C.3   295  ARG295      0.1597
     70  C         42.2670   25.1850   17.6870 C.2   295  ARG295      0.2287
     71  O         42.1440   25.5000   16.4950 O.2   295  ARG295     -0.2864
     72  CB        40.1870   25.0030   19.0150 C.3   295  ARG295      0.0334
     73  CG        38.9710   24.1860   19.4210 C.3   295  ARG295      0.0492
     74  CD        37.9960   25.1290   20.1270 C.3   295  ARG295      0.2205
     75  NE        36.6590   24.6270   20.4740 N.pl3 295  ARG295     -0.0865
     76  CZ        35.6520   24.4840   19.6130 C.cat 295  ARG295      0.5346
     77  NH1       34.4650   24.0390   20.0540 N.pl3 295  ARG295      0.1354
     78  NH2       35.8420   24.6770   18.3080 N.pl3 295  ARG295      0.1354
     79  N         44.0940   23.2540   15.2400 N.3   298  THR298     -0.1203
     80  CA        43.2100   22.9240   14.1060 C.3   298  THR298      0.1994
     81  C         43.0800   24.1040   13.1470 C.2   298  THR298      0.2617
     82  O         43.2280   23.9260   11.9240 O.2   298  THR298     -0.2717
     83  CB        41.8220   22.4290   14.5660 C.3   298  THR298      0.1784
     84  OG1       41.9900   21.2160   15.3130 O.3   298  THR298     -0.2211
     85  CG2       40.9410   22.1420   13.3890 C.3   298  THR298      0.0376
     86  N         42.8570   25.2920   13.7020 N.am  299  ALA299     -0.1979
     87  CA        42.7170   26.5400   12.9070 C.3   299  ALA299      0.1597
     88  C         44.0310   27.0430   12.2970 C.2   299  ALA299      0.2287
     89  O         44.0870   27.4340   11.1070 O.2   299  ALA299     -0.2864
     90  CB        42.0650   27.6420   13.7720 C.3   299  ALA299      0.0319
@<TRIPOS>BOND
     1    17    16    1
     2    18    16    1
     3    16    15    2
     4    15    14    1
     5    14    13    1
     6    13    12    1
     7    12     9    1
     8    89    88    2
     9     9     8    1
    10     9    10    1
    11    82    81    2
    12     8     3   am
    13    88    87    1
    14    87    86    1
    15    87    90    1
    16     3     2    1
    17     3     4    2
    18     1     2    1
    19    10    19   am
    20    10    11    2
    21    81    86   am
    22    81    80    1
    23    22    21    2
    24     2     5    1
    25    85    83    1
    26    19    20    1
    27    80    83    1
    28    80    79    1
    29    21    20    1
    30    21    24   am
    31     5     6    1
    32     5     7    1
    33    83    84    1
    34    27    26    2
    35    20    23    1
    36    26    25    1
    37    25    24    1
    38    25    28    1
    39    29    28    1
    40    29    30    1
    41    71    70    2
    42    32    30   ar
    43    45    42    1
    44    30    31   ar
    45    70    69    1
    46    66    65    2
    47    42    41    1
    48    42    43    1
    49    78    76    1
    50    69    72    1
    51    69    68    1
    52    33    34    1
    53    39    38    1
    54    44    43    2
    55    34    37    1
    56    34    35    1
    57    65    68   am
    58    65    64    1
    59    43    46   am
    60    72    73    1
    61    37    38    1
    62    73    74    1
    63    38    40    1
    64    76    77    1
    65    76    75    2
    66    36    35    2
    67    46    47    1
    68    64    67    1
    69    64    63    1
    70    74    75    1
    71    53    51    1
    72    47    48    1
    73    47    50    1
    74    51    50    1
    75    51    52    1
    76    48    49    2
    77    57    56    2
    78    61    60   ar
    79    56    55    1
    80    59    60    1
    81    59    58    1
    82    60    62   ar
    83    55    58    1
    84    55    54    1
