@<TRIPOS>MOLECULE
tmp/3b1qA01.pdb
 95 89 0 0 0
SMALL
GASTEIGER

@<TRIPOS>ATOM
      1  N         21.4740   11.1690   84.4790 N.3   232  VAL232     -0.1231
      2  CA        20.1120   11.3660   84.9110 C.3   232  VAL232      0.1692
      3  C         19.2790   10.7340   83.8110 C.2   232  VAL232      0.2592
      4  O         19.5070   10.9960   82.6270 O.2   232  VAL232     -0.2718
      5  CB        19.8060   12.8950   84.9790 C.3   232  VAL232      0.0266
      6  CG1       18.3560   13.1640   85.4250 C.3   232  VAL232      0.0020
      7  CG2       20.8240   13.6030   85.8910 C.3   232  VAL232      0.0020
      8  N         18.3120    9.9290   84.1780 N.am  233  ARG233     -0.1966
      9  CA        17.3930    9.3590   83.2160 C.3   233  ARG233      0.1729
     10  C         16.6460   10.4420   82.4130 C.2   233  ARG233      0.2616
     11  O         16.0570   11.3710   83.0030 O.2   233  ARG233     -0.2715
     12  CB        16.4340    8.4200   83.9730 C.3   233  ARG233      0.0348
     13  CG        15.0930    8.1870   83.3660 C.3   233  ARG233      0.0492
     14  CD        15.2160    7.3660   82.1050 C.3   233  ARG233      0.2205
     15  NE        14.8490    5.9710   82.3290 N.pl3 233  ARG233     -0.0865
     16  CZ        15.6860    4.9490   82.1900 C.cat 233  ARG233      0.5346
     17  NH1       16.9430    5.1580   81.8180 N.pl3 233  ARG233      0.1354
     18  NH2       15.2570    3.7160   82.4180 N.pl3 233  ARG233      0.1354
     19  N         16.6590   10.3130   81.0940 N.am  234  ALA234     -0.1963
     20  CA        15.8840   11.2620   80.2440 C.3   234  ALA234      0.1728
     21  C         14.3860   10.9820   80.2690 C.2   234  ALA234      0.2616
     22  O         13.9380    9.8360   80.3010 O.2   234  ALA234     -0.2715
     23  CB        16.3750   11.2640   78.8480 C.3   234  ALA234      0.0334
     24  N         13.5940   12.0500   80.1390 N.am  235  GLU235     -0.1977
     25  CA        12.1420   11.8360   80.0770 C.3   235  GLU235      0.1602
     26  C         11.7150   11.2600   78.7170 C.2   235  GLU235      0.2287
     27  O         10.7040   10.5950   78.6270 O.2   235  GLU235     -0.2864
     28  CB        11.4000   13.1590   80.4220 C.3   235  GLU235      0.0415
     29  CG        11.3050   13.3210   81.9680 C.3   235  GLU235      0.1163
     30  CD        10.9510   14.7500   82.4290 C.2   235  GLU235      0.3649
     31  OE1       10.8600   15.6980   81.5850 O.co2 235  GLU235     -0.2457
     32  OE2       10.7060   14.8690   83.6610 O.co2 235  GLU235     -0.2457
     33  N         22.5000   16.7920   84.5020 N.3   270  LEU270     -0.1245
     34  CA        21.0600   17.1210   84.4310 C.3   270  LEU270      0.1561
     35  C         20.7560   17.9370   83.1930 C.2   270  LEU270      0.2260
     36  O         19.7540   17.6680   82.4940 O.2   270  LEU270     -0.2867
     37  CB        20.6300   17.8560   85.7260 C.3   270  LEU270      0.0270
     38  CG        19.2050   18.4010   85.7890 C.3   270  LEU270      0.0019
     39  CD1       18.1660   17.2460   85.6170 C.3   270  LEU270      0.0001
     40  CD2       18.9580   19.1180   87.1420 C.3   270  LEU270      0.0001
     41  N         20.6190   15.7210   80.1850 N.3   273  ALA273     -0.1231
     42  CA        19.3970   14.8980   80.1770 C.3   273  ALA273      0.1694
     43  C         18.1740   15.6840   79.7370 C.2   273  ALA273      0.2591
     44  O         17.2750   15.1740   79.0560 O.2   273  ALA273     -0.2718
     45  CB        19.1600   14.2830   81.5360 C.3   273  ALA273      0.0304
     46  N         18.0870   16.9360   80.1840 N.am  274  LEU274     -0.1980
     47  CA        16.9730   17.7800   79.7220 C.3   274  LEU274      0.1596
     48  C         17.0570   18.0660   78.2130 C.2   274  LEU274      0.2287
     49  O         16.0580   17.9760   77.4870 O.2   274  LEU274     -0.2864
     50  CB        16.9710   19.1240   80.5240 C.3   274  LEU274      0.0297
     51  CG        16.6790   18.9360   82.0030 C.3   274  LEU274      0.0022
     52  CD1       16.8590   20.2700   82.7170 C.3   274  LEU274      0.0001
     53  CD2       15.2400   18.4020   82.1880 C.3   274  LEU274      0.0001
     54  N         13.9600   27.6260   88.6410 N.3   289  ALA289     -0.1231
     55  CA        13.2320   26.9610   89.7010 C.3   289  ALA289      0.1694
     56  C         13.0730   25.4790   89.3500 C.2   289  ALA289      0.2591
     57  O         13.1950   24.6180   90.2220 O.2   289  ALA289     -0.2718
     58  CB        11.8730   27.6230   89.9450 C.3   289  ALA289      0.0304
     59  N         12.8000   25.2040   88.0740 N.am  290  GLU290     -0.1979
     60  CA        12.6560   23.8050   87.5900 C.3   290  GLU290      0.1602
     61  C         13.9310   22.9980   87.7170 C.2   290  GLU290      0.2287
     62  O         13.9190   21.8440   88.2030 O.2   290  GLU290     -0.2864
     63  CB        12.2730   23.8360   86.1080 C.3   290  GLU290      0.0415
     64  CG        12.1890   22.4170   85.4910 C.3   290  GLU290      0.1163
     65  CD        11.8320   22.4630   84.0250 C.2   290  GLU290      0.3649
     66  OE1       12.0990   21.4450   83.3120 O.co2 290  GLU290     -0.2457
     67  OE2       11.3650   23.5350   83.5610 O.co2 290  GLU290     -0.2457
     68  N         14.5350   22.1720   91.4330 N.3   293  ALA293     -0.1231
     69  CA        13.6370   21.1180   91.8780 C.3   293  ALA293      0.1694
     70  C         14.0130   19.7680   91.2500 C.2   293  ALA293      0.2591
     71  O         14.0500   18.7530   91.9490 O.2   293  ALA293     -0.2718
     72  CB        12.1850   21.4990   91.5520 C.3   293  ALA293      0.0304
     73  N         14.3100   19.7460   89.9510 N.am  294  ARG294     -0.1980
     74  CA        14.7710   18.4930   89.3370 C.3   294  ARG294      0.1597
     75  C         16.0740   17.9540   89.9190 C.2   294  ARG294      0.2287
     76  O         16.2320   16.7220   90.1270 O.2   294  ARG294     -0.2864
     77  CB        14.9510   18.6640   87.8570 C.3   294  ARG294      0.0334
     78  CG        13.6540   18.9100   87.1210 C.3   294  ARG294      0.0492
     79  CD        14.0100   19.0230   85.6400 C.3   294  ARG294      0.2205
     80  NE        12.8770   19.1130   84.6510 N.pl3 294  ARG294     -0.0865
     81  CZ        12.2220   18.0580   84.1780 C.cat 294  ARG294      0.5346
     82  NH1       11.2900   18.2400   83.2290 N.pl3 294  ARG294      0.1354
     83  NH2       12.4710   16.8190   84.6160 N.pl3 294  ARG294      0.1354
     84  N         15.2250   16.2930   93.1150 N.3   297  THR297     -0.1203
     85  CA        14.5460   15.0450   92.8010 C.3   297  THR297      0.1994
     86  C         15.5150   13.9400   92.3750 C.2   297  THR297      0.2617
     87  O         15.4210   12.7980   92.8640 O.2   297  THR297     -0.2717
     88  CB        13.4340   15.2780   91.7620 C.3   297  THR297      0.1784
     89  OG1       12.4870   16.2050   92.3210 O.3   297  THR297     -0.2211
     90  CG2       12.7150   13.9440   91.4520 C.3   297  THR297      0.0376
     91  N         16.4630   14.2770   91.5220 N.am  298  ALA298     -0.1979
     92  CA        17.4110   13.3200   90.9930 C.3   298  ALA298      0.1597
     93  C         18.4690   12.9820   92.0230 C.2   298  ALA298      0.2287
     94  O         18.8290   11.8310   92.1610 O.2   298  ALA298     -0.2864
     95  CB        18.1090   13.8870   89.7250 C.3   298  ALA298      0.0319
@<TRIPOS>BOND
     1    49    48    2
     2    48    47    1
     3    27    26    2
     4    26    25    1
     5    23    20    1
     6    44    43    2
     7    47    46    1
     8    47    50    1
     9    43    42    1
    10    43    46   am
    11    25    24    1
    12    25    28    1
    13    24    21   am
    14    42    41    1
    15    42    45    1
    16    20    21    1
    17    20    19    1
    18    21    22    2
    19    28    29    1
    20    50    51    1
    21    19    10   am
    22    31    30   ar
    23    17    16    1
    24    29    30    1
    25    51    53    1
    26    51    52    1
    27    14    15    1
    28    14    13    1
    29    16    15    2
    30    16    18    1
    31    10    11    2
    32    10     9    1
    33    30    32   ar
    34    36    35    2
    35     4     3    2
    36    35    34    1
    37     9    12    1
    38     9     8    1
    39    82    81    1
    40    66    65   ar
    41    13    12    1
    42    67    65   ar
    43     3     8   am
    44     3     2    1
    45    65    64    1
    46    81    83    1
    47    81    80    2
    48    34    33    1
    49    34    37    1
    50     1     2    1
    51    80    79    1
    52     2     5    1
    53     5     6    1
    54     5     7    1
    55    64    63    1
    56    39    38    1
    57    79    78    1
    58    37    38    1
    59    38    40    1
    60    63    60    1
    61    78    77    1
    62    60    61    1
    63    60    59    1
    64    61    62    2
    65    77    74    1
    66    59    56   am
    67    54    55    1
    68    74    75    1
    69    74    73    1
    70    56    55    1
    71    56    57    2
    72    55    58    1
    73    95    92    1
    74    75    76    2
    75    73    70   am
    76    92    91    1
    77    92    93    1
    78    70    69    1
    79    70    71    2
    80    68    69    1
    81    90    88    1
    82    91    86   am
    83    72    69    1
    84    88    89    1
    85    88    85    1
    86    93    94    2
    87    86    85    1
    88    86    87    2
    89    85    84    1
