@<TRIPOS>MOLECULE
tmp/3b1qC01.pdb
 104 98 0 0 0
SMALL
GASTEIGER

@<TRIPOS>ATOM
      1  N         43.9280   51.1790  -19.2910 N.3   232  VAL232     -0.1231
      2  CA        43.4370   51.1160  -20.6490 C.3   232  VAL232      0.1692
      3  C         42.4940   49.9060  -20.6620 C.2   232  VAL232      0.2592
      4  O         42.8720   48.8430  -20.1680 O.2   232  VAL232     -0.2718
      5  CB        44.5980   50.8890  -21.6310 C.3   232  VAL232      0.0266
      6  CG1       44.0730   50.9100  -23.0150 C.3   232  VAL232      0.0020
      7  CG2       45.6580   52.0310  -21.5380 C.3   232  VAL232      0.0020
      8  N         41.3070   50.0570  -21.2200 N.am  233  ARG233     -0.1966
      9  CA        40.4090   48.9250  -21.3390 C.3   233  ARG233      0.1729
     10  C         41.0850   47.8550  -22.2010 C.2   233  ARG233      0.2616
     11  O         41.6230   48.1700  -23.2670 O.2   233  ARG233     -0.2715
     12  CB        39.1170   49.3920  -21.9910 C.3   233  ARG233      0.0348
     13  CG        38.0330   48.3490  -22.0300 C.3   233  ARG233      0.0492
     14  CD        36.6950   49.0200  -22.1710 C.3   233  ARG233      0.2205
     15  NE        35.7670   48.5030  -21.1660 N.pl3 233  ARG233     -0.0865
     16  CZ        35.2140   47.2910  -21.1990 C.cat 233  ARG233      0.5346
     17  NH1       35.4880   46.4470  -22.1910 N.pl3 233  ARG233      0.1354
     18  NH2       34.3870   46.9230  -20.2300 N.pl3 233  ARG233      0.1354
     19  N         41.0450   46.6110  -21.7380 N.am  234  ALA234     -0.1963
     20  CA        41.5810   45.4840  -22.4920 C.3   234  ALA234      0.1728
     21  C         40.6410   45.1450  -23.6380 C.2   234  ALA234      0.2616
     22  O         39.4070   45.2570  -23.5440 O.2   234  ALA234     -0.2715
     23  CB        41.7720   44.2720  -21.6030 C.3   234  ALA234      0.0334
     24  N         41.2370   44.7070  -24.7320 N.am  235  GLU235     -0.1977
     25  CA        40.4680   44.2280  -25.8670 C.3   235  GLU235      0.1602
     26  C         39.7910   42.8620  -25.6510 C.2   235  GLU235      0.2287
     27  O         38.8150   42.5630  -26.3070 O.2   235  GLU235     -0.2864
     28  CB        41.3500   44.1870  -27.1210 C.3   235  GLU235      0.0415
     29  CG        41.3990   45.6480  -27.6750 C.3   235  GLU235      0.1163
     30  CD        42.3850   45.8900  -28.8330 C.2   235  GLU235      0.3649
     31  OE1       42.2840   46.9900  -29.4420 O.co2 235  GLU235     -0.2457
     32  OE2       43.2080   45.0320  -29.1530 O.co2 235  GLU235     -0.2457
     33  N         49.3280   50.9810  -20.8310 N.3   270  LEU270     -0.1245
     34  CA        48.9820   50.4630  -22.1560 C.3   270  LEU270      0.1561
     35  C         49.6390   49.1160  -22.4210 C.2   270  LEU270      0.2260
     36  O         48.9510   48.1930  -22.9280 O.2   270  LEU270     -0.2867
     37  CB        49.3840   51.4790  -23.2450 C.3   270  LEU270      0.0270
     38  CG        49.2820   51.0510  -24.7220 C.3   270  LEU270      0.0019
     39  CD1       47.8180   50.6720  -25.0910 C.3   270  LEU270      0.0001
     40  CD2       49.7020   52.2320  -25.6120 C.3   270  LEU270      0.0001
     41  N         47.8310   46.4170  -20.6720 N.3   273  ALA273     -0.1231
     42  CA        46.4910   46.1820  -21.2480 C.3   273  ALA273      0.1694
     43  C         46.6140   45.3050  -22.5050 C.2   273  ALA273      0.2591
     44  O         45.7760   44.4240  -22.7720 O.2   273  ALA273     -0.2718
     45  CB        45.8070   47.5450  -21.6030 C.3   273  ALA273      0.0304
     46  N         47.6310   45.5980  -23.3060 N.am  274  LEU274     -0.1980
     47  CA        47.9140   44.7780  -24.4770 C.3   274  LEU274      0.1596
     48  C         48.2500   43.3570  -24.0320 C.2   274  LEU274      0.2287
     49  O         47.7470   42.4190  -24.6130 O.2   274  LEU274     -0.2864
     50  CB        49.0760   45.3490  -25.2660 C.3   274  LEU274      0.0297
     51  CG        48.7360   46.6910  -25.9020 C.3   274  LEU274      0.0022
     52  CD1       50.0060   47.2070  -26.5960 C.3   274  LEU274      0.0001
     53  CD2       47.5690   46.5230  -26.8960 C.3   274  LEU274      0.0001
     54  N         54.8240   51.2500  -34.1550 N.3   289  ALA289     -0.1231
     55  CA        53.8510   52.1730  -34.7560 C.3   289  ALA289      0.1694
     56  C         52.4800   51.9770  -34.1220 C.2   289  ALA289      0.2591
     57  O         51.8000   52.9580  -33.8460 O.2   289  ALA289     -0.2718
     58  CB        53.7770   52.0490  -36.2950 C.3   289  ALA289      0.0304
     59  N         52.1340   50.7050  -33.8610 N.am  290  GLU290     -0.1979
     60  CA        50.8760   50.3600  -33.2380 C.3   290  GLU290      0.1602
     61  C         50.7870   50.9700  -31.8280 C.2   290  GLU290      0.2287
     62  O         49.7540   51.5590  -31.4520 O.2   290  GLU290     -0.2864
     63  CB        50.6970   48.8530  -33.2220 C.3   290  GLU290      0.0415
     64  CG        49.5600   48.4210  -32.3670 C.3   290  GLU290      0.1163
     65  CD        49.4860   46.9030  -32.2470 C.2   290  GLU290      0.3649
     66  OE1       50.1930   46.1850  -32.9810 O.co2 290  GLU290     -0.2457
     67  OE2       48.7110   46.4490  -31.3940 O.co2 290  GLU290     -0.2457
     68  N         50.2520   54.7540  -31.9190 N.3   293  ALA293     -0.1231
     69  CA        48.9060   55.0370  -32.3520 C.3   293  ALA293      0.1694
     70  C         47.9080   54.7370  -31.2230 C.2   293  ALA293      0.2591
     71  O         46.9880   55.5500  -31.0070 O.2   293  ALA293     -0.2718
     72  CB        48.5860   54.2760  -33.6310 C.3   293  ALA293      0.0304
     73  N         48.0580   53.5800  -30.5690 N.am  294  ARG294     -0.1980
     74  CA        47.1420   53.2100  -29.5120 C.3   294  ARG294      0.1597
     75  C         47.2790   54.2130  -28.3610 C.2   294  ARG294      0.2287
     76  O         46.3290   54.5740  -27.7300 O.2   294  ARG294     -0.2864
     77  CB        47.4470   51.8290  -28.9980 C.3   294  ARG294      0.0334
     78  CG        47.0490   50.6780  -29.9820 C.3   294  ARG294      0.0492
     79  CD        47.3980   49.3840  -29.3100 C.3   294  ARG294      0.2205
     80  NE        46.9480   48.1420  -29.9890 N.pl3 294  ARG294     -0.0865
     81  CZ        45.7430   47.5840  -29.8670 C.cat 294  ARG294      0.5346
     82  NH1       45.4850   46.3960  -30.4610 N.pl3 294  ARG294      0.1354
     83  NH2       44.7890   48.1950  -29.1800 N.pl3 294  ARG294      0.1354
     84  N         48.0590   57.3910  -28.5710 N.3   296  GLU296     -0.1231
     85  CA        47.3150   58.5720  -28.9760 C.3   296  GLU296      0.1699
     86  C         45.8030   58.3750  -28.8660 C.2   296  GLU296      0.2593
     87  O         45.0820   59.2900  -28.4370 O.2   296  GLU296     -0.2718
     88  CB        47.7390   59.0520  -30.3610 C.3   296  GLU296      0.0402
     89  CG        47.2640   60.5010  -30.5940 C.3   296  GLU296      0.1161
     90  CD        47.7030   61.0720  -31.9310 C.2   296  GLU296      0.3649
     91  OE1       48.5330   60.4590  -32.6440 O.co2 296  GLU296     -0.2457
     92  OE2       47.2260   62.1610  -32.2550 O.co2 296  GLU296     -0.2457
     93  N         45.3200   57.2060  -29.2780 N.am  297  THR297     -0.1939
     94  CA        43.8960   56.8610  -29.1810 C.3   297  THR297      0.2028
     95  C         43.3790   56.8150  -27.7400 C.2   297  THR297      0.2642
     96  O         42.3160   57.4120  -27.4350 O.2   297  THR297     -0.2714
     97  CB        43.6220   55.5130  -29.9330 C.3   297  THR297      0.1808
     98  OG1       43.9450   55.7330  -31.3070 O.3   297  THR297     -0.2208
     99  CG2       42.1760   55.0910  -29.7900 C.3   297  THR297      0.0379
    100  N         44.1430   56.1830  -26.8540 N.am  298  ALA298     -0.1977
    101  CA        43.7290   56.0060  -25.4650 C.3   298  ALA298      0.1597
    102  C         43.8100   57.2950  -24.6370 C.2   298  ALA298      0.2287
    103  O         42.9460   57.5400  -23.7570 O.2   298  ALA298     -0.2864
    104  CB        44.5230   54.9400  -24.8120 C.3   298  ALA298      0.0319
@<TRIPOS>BOND
     1    58    55    1
     2    55    54    1
     3    55    56    1
     4    56    59   am
     5    56    57    2
     6    59    60    1
     7    72    69    1
     8    60    63    1
     9    60    61    1
    10    63    64    1
    11    66    65   ar
    12    91    90   ar
    13    64    65    1
    14    69    68    1
    15    69    70    1
    16    92    90   ar
    17    65    67   ar
    18    90    89    1
    19    61    62    2
    20    98    97    1
    21    70    71    2
    22    70    73   am
    23    89    88    1
    24    73    74    1
    25    82    81    1
    26    88    85    1
    27    80    81    2
    28    80    79    1
    29    78    79    1
    30    78    77    1
    31    97    99    1
    32    97    94    1
    33    81    83    1
    34    74    77    1
    35    74    75    1
    36    31    30   ar
    37    93    94    1
    38    93    86   am
    39    94    95    1
    40    32    30   ar
    41    85    86    1
    42    85    84    1
    43    86    87    2
    44    30    29    1
    45    75    76    2
    46    95    96    2
    47    95   100   am
    48    29    28    1
    49    28    25    1
    50    53    51    1
    51   100   101    1
    52    52    51    1
    53    27    26    2
    54    51    50    1
    55    25    26    1
    56    25    24    1
    57    40    38    1
    58   101   104    1
    59   101   102    1
    60    50    47    1
    61    39    38    1
    62    24    21   am
    63    38    37    1
    64   102   103    2
    65    49    48    2
    66    47    48    1
    67    47    46    1
    68    21    22    2
    69    21    20    1
    70    46    43   am
    71    11    10    2
    72    37    34    1
    73     6     5    1
    74    36    35    2
    75    44    43    2
    76    43    42    1
    77    20    19    1
    78    20    23    1
    79    35    34    1
    80    10    19   am
    81    10     9    1
    82    17    16    1
    83    14    13    1
    84    14    15    1
    85    34    33    1
    86    13    12    1
    87    12     9    1
    88     5     7    1
    89     5     2    1
    90    45    42    1
    91     9     8    1
    92    42    41    1
    93     8     3   am
    94    16    15    2
    95    16    18    1
    96     3     2    1
    97     3     4    2
    98     2     1    1
