@<TRIPOS>MOLECULE
tmp/3b1qB00.pdb
 138 125 0 0 0
SMALL
GASTEIGER

@<TRIPOS>ATOM
      1  N         34.6210   47.3770   34.7810 N.3     7  SER7       -0.1217
      2  CA        33.2800   47.2320   35.4100 C.3     7  SER7        0.1889
      3  C         32.9970   45.7820   35.8240 C.2     7  SER7        0.2288
      4  O         33.5320   44.8270   35.2400 O.2     7  SER7       -0.2866
      5  CB        32.2140   47.7170   34.4350 C.3     7  SER7        0.2089
      6  OG        32.3320   47.0070   33.2060 O.3     7  SER7       -0.2183
      7  N         29.3650   43.7600   36.5240 N.3     9  ALA9       -0.1245
      8  CA        27.9700   44.1870   36.3160 C.3     9  ALA9        0.1562
      9  C         27.0900   43.0060   36.0450 C.2     9  ALA9        0.2260
     10  O         27.5710   41.9640   35.6250 O.2     9  ALA9       -0.2867
     11  CB        27.9000   45.1510   35.1080 C.3     9  ALA9        0.0290
     12  N         24.2660   41.7300   33.4740 N.3    11  ASP11      -0.1239
     13  CA        23.8190   42.1000   32.1120 C.3    11  ASP11       0.1674
     14  C         22.4240   41.5230   31.9180 C.2    11  ASP11       0.2266
     15  O         22.1340   40.3660   32.3020 O.2    11  ASP11      -0.2867
     16  CB        24.7560   41.4420   31.0870 C.3    11  ASP11       0.1410
     17  CG        26.1160   42.1130   31.0090 C.2    11  ASP11       0.3668
     18  OD1       26.3390   43.1840   31.6100 O.co2  11  ASP11      -0.2456
     19  OD2       26.9810   41.5730   30.3070 O.co2  11  ASP11      -0.2456
     20  N         30.0490   42.7350   32.9330 N.3    41  GLY41      -0.1210
     21  CA        31.0690   43.7140   33.3520 C.3    41  GLY41       0.1956
     22  C         32.3900   43.3690   32.6420 C.2    41  GLY41       0.2612
     23  O         32.7850   42.1870   32.5490 O.2    41  GLY41      -0.2717
     24  N         33.0920   44.4040   32.1830 N.am   42  CYS42      -0.1970
     25  CA        34.3390   44.2200   31.4240 C.3    42  CYS42       0.1712
     26  C         35.3960   43.4810   32.2530 C.2    42  CYS42       0.2296
     27  O         36.0360   42.5530   31.7280 O.2    42  CYS42      -0.2864
     28  CB        34.8540   45.5880   30.9330 C.3    42  CYS42       0.0983
     29  SG        33.6000   46.3000   29.8580 S.3    42  CYS42      -0.0798
     30  N         34.3650   39.7740   32.6820 N.3    45  ASN45      -0.1240
     31  CA        34.4440   39.0450   31.3920 C.3    45  ASN45       0.1653
     32  C         35.8710   38.7380   31.0700 C.2    45  ASN45       0.2266
     33  O         36.2040   37.5930   30.6940 O.2    45  ASN45      -0.2867
     34  CB        33.7900   39.8570   30.2460 C.3    45  ASN45       0.1155
     35  CG        32.3110   40.1490   30.4700 C.2    45  ASN45       0.2627
     36  OD1       31.6320   39.4830   31.2700 O.2    45  ASN45      -0.2716
     37  ND2       31.7970   41.1100   29.6990 N.am   45  ASN45      -0.0877
     38  N         23.6560   46.3540   33.0810 N.3    96  ALA96      -0.1245
     39  CA        23.6640   46.7350   31.6680 C.3    96  ALA96       0.1562
     40  C         22.3800   46.2160   31.0840 C.2    96  ALA96       0.2260
     41  O         21.9880   45.0540   31.3280 O.2    96  ALA96      -0.2867
     42  CB        24.8600   46.0480   30.9710 C.3    96  ALA96       0.0290
     43  N         21.0670   45.4860   27.6280 N.3    98  ILE98      -0.1245
     44  CA        21.7690   45.3100   26.3680 C.3    98  ILE98       0.1561
     45  C         20.7670   44.7610   25.3630 C.2    98  ILE98       0.2260
     46  O         20.0920   43.8150   25.6530 O.2    98  ILE98      -0.2867
     47  CB        22.9080   44.2740   26.5160 C.3    98  ILE98       0.0252
     48  CG1       23.9370   44.7510   27.5570 C.3    98  ILE98       0.0019
     49  CG2       23.6330   44.0840   25.1570 C.3    98  ILE98       0.0019
     50  CD1       25.0840   43.8070   27.8490 C.3    98  ILE98       0.0001
     51  N         23.2600   49.7170   24.3840 N.3   108  THR108     -0.1218
     52  CA        23.1980   49.4210   25.8500 C.3   108  THR108      0.1862
     53  C         22.8530   50.6980   26.6510 C.2   108  THR108      0.2287
     54  O         23.4050   51.7530   26.3390 O.2   108  THR108     -0.2866
     55  CB        24.4970   48.8370   26.3000 C.3   108  THR108      0.1770
     56  OG1       24.6820   47.6070   25.5980 O.3   108  THR108     -0.2211
     57  CG2       24.6060   48.6320   27.8760 C.3   108  THR108      0.0375
     58  N         23.4720   51.7270   30.2490 N.3   110  PHE110     -0.1241
     59  CA        24.2590   51.1710   31.3570 C.3   110  PHE110      0.1605
     60  C         24.0500   51.9990   32.6090 C.2   110  PHE110      0.2264
     61  O         24.3290   53.2030   32.6170 O.2   110  PHE110     -0.2867
     62  CB        25.7330   51.1720   30.9670 C.3   110  PHE110      0.0534
     63  CG        26.5960   50.3930   31.9040 C.ar  110  PHE110     -0.0203
     64  CD1       26.7530   49.0290   31.7340 C.ar  110  PHE110     -0.0042
     65  CD2       27.2480   51.0610   32.9550 C.ar  110  PHE110     -0.0042
     66  CE1       27.5060   48.2790   32.5870 C.ar  110  PHE110     -0.0003
     67  CE2       28.0260   50.3360   33.8280 C.ar  110  PHE110     -0.0003
     68  CZ        28.1990   48.9420   33.6610 C.ar  110  PHE110     -0.0000
     69  N         29.7740   51.2100   40.2090 N.3   115  MET115     -0.1245
     70  CA        30.8730   51.5220   39.2900 C.3   115  MET115      0.1570
     71  C         31.3230   52.9720   39.3830 C.2   115  MET115      0.2261
     72  O         32.5050   53.2730   39.1220 O.2   115  MET115     -0.2867
     73  CB        30.5170   51.1820   37.8230 C.3   115  MET115      0.0387
     74  CG        31.7700   51.1910   36.9110 C.3   115  MET115      0.0595
     75  SD        31.2230   51.0240   35.1800 S.3   115  MET115     -0.1393
     76  CE        30.5580   52.6080   34.7770 C.3   115  MET115      0.0692
     77  N         36.6690   49.6140   30.3970 N.3   136  PRO136     -0.2102
     78  CA        35.5460   50.4970   30.6850 C.3   136  PRO136      0.1504
     79  C         35.1440   50.4410   32.1640 C.2   136  PRO136      0.2575
     80  O         34.9550   49.3250   32.7070 O.2   136  PRO136     -0.2718
     81  CB        34.4290   49.9270   29.7930 C.3   136  PRO136      0.0282
     82  CG        35.2360   49.3070   28.5970 C.3   136  PRO136      0.0208
     83  CD        36.4050   48.6520   29.3040 C.3   136  PRO136      0.0893
     84  N         34.9700   51.6090   32.7870 N.am  137  ASP137     -0.1974
     85  CA        34.7430   51.6590   34.2350 C.3   137  ASP137      0.1708
     86  C         34.2160   53.0500   34.5880 C.2   137  ASP137      0.2293
     87  O         33.9510   53.8650   33.6800 O.2   137  ASP137     -0.2864
     88  CB        36.1170   51.4670   34.9270 C.3   137  ASP137      0.1436
     89  CG        36.0450   50.7990   36.3200 C.2   137  ASP137      0.3671
     90  OD1       35.0050   50.7460   36.9640 O.co2 137  ASP137     -0.2456
     91  OD2       37.0980   50.2870   36.7400 O.co2 137  ASP137     -0.2456
     92  N         33.5300   51.0890   25.8910 N.3   162  GLN162     -0.1231
     93  CA        32.3320   51.8790   26.1170 C.3   162  GLN162      0.1698
     94  C         32.4920   53.1590   26.9200 C.2   162  GLN162      0.2592
     95  O         31.6290   54.0240   26.8460 O.2   162  GLN162     -0.2718
     96  CB        31.1780   50.9960   26.6890 C.3   162  GLN162      0.0381
     97  CG        30.7800   49.8710   25.8170 C.3   162  GLN162      0.0905
     98  CD        31.4790   48.5700   26.2240 C.2   162  GLN162      0.2608
     99  OE1       32.6850   48.5580   26.5710 O.2   162  GLN162     -0.2717
    100  NE2       30.7360   47.4540   26.1710 N.am  162  GLN162     -0.0878
    101  N         33.6270   53.3070   27.6270 N.am  163  GLY163     -0.1957
    102  CA        33.9800   54.4870   28.3740 C.3   163  GLY163      0.1869
    103  C         34.4960   55.6560   27.5100 C.2   163  GLY163      0.2309
    104  O         34.6620   56.7720   27.9880 O.2   163  GLY163     -0.2863
    105  N         33.3470   59.3400   27.6300 N.3   166  LEU166     -0.1245
    106  CA        33.7060   60.0490   28.8410 C.3   166  LEU166      0.1561
    107  C         35.0550   60.7950   28.7150 C.2   166  LEU166      0.2260
    108  O         35.3200   61.6990   29.5010 O.2   166  LEU166     -0.2867
    109  CB        33.7770   59.0960   30.0160 C.3   166  LEU166      0.0270
    110  CG        32.4300   58.3820   30.3180 C.3   166  LEU166      0.0019
    111  CD1       32.7630   57.0940   30.9100 C.3   166  LEU166      0.0001
    112  CD2       31.6780   59.2100   31.2980 C.3   166  LEU166      0.0001
    113  N         27.6940   39.8160   22.8060 N.3   242  THR242     -0.1203
    114  CA        28.0300   40.4730   24.1130 C.3   242  THR242      0.1994
    115  C         29.2480   39.8380   24.7860 C.2   242  THR242      0.2618
    116  O         29.1760   38.6690   25.1550 O.2   242  THR242     -0.2717
    117  CB        26.8560   40.3420   25.1280 C.3   242  THR242      0.1784
    118  OG1       25.6400   40.7760   24.5280 O.3   242  THR242     -0.2211
    119  CG2       27.1390   41.1740   26.3980 C.3   242  THR242      0.0376
    120  N         30.3440   40.5950   24.9490 N.am  243  GLY243     -0.1956
    121  CA        31.5570   40.0640   25.5730 C.3   243  GLY243      0.1869
    122  C         32.6110   39.4870   24.6280 C.2   243  GLY243      0.2309
    123  O         33.6310   38.9810   25.0930 O.2   243  GLY243     -0.2863
    124  N         35.8280   41.3470   25.0790 N.3   246  ASP246     -0.1239
    125  CA        36.4320   40.9740   26.3320 C.3   246  ASP246      0.1674
    126  C         37.1180   39.5770   26.3330 C.2   246  ASP246      0.2266
    127  O         38.1790   39.4140   26.9220 O.2   246  ASP246     -0.2867
    128  CB        35.3590   41.0270   27.4380 C.3   246  ASP246      0.1410
    129  CG        34.9000   42.4500   27.7300 C.2   246  ASP246      0.3668
    130  OD1       35.6880   43.3790   27.4240 O.co2 246  ASP246     -0.2456
    131  OD2       33.7570   42.6560   28.2130 O.co2 246  ASP246     -0.2456
    132  N         28.2060   36.9600   28.2450 N.3   282  PRO282     -0.2116
    133  CA        29.6170   37.0690   28.0530 C.3   282  PRO282      0.1372
    134  C         30.4300   35.9380   28.6640 C.2   282  PRO282      0.2244
    135  O         31.5750   35.7940   28.2810 O.2   282  PRO282     -0.2868
    136  CB        29.9730   38.4240   28.7190 C.3   282  PRO282      0.0268
    137  CG        28.7790   38.7030   29.6530 C.3   282  PRO282      0.0207
    138  CD        27.6110   38.0520   29.0530 C.3   282  PRO282      0.0892
@<TRIPOS>BOND
     1   113   114    1
     2   114   115    1
     3   114   117    1
     4    51    52    1
     5   118   117    1
     6   122   123    2
     7   122   121    1
     8   115   120   am
     9   115   116    2
    10   120   121    1
    11   124   125    1
    12   117   119    1
    13    49    47    1
    14    45    46    2
    15    45    44    1
    16    56    55    1
    17    97    98    1
    18    97    96    1
    19    52    55    1
    20    52    53    1
    21    92    93    1
    22    93    96    1
    23    93    94    1
    24   100    98   am
    25    98    99    2
    26    55    57    1
    27   125   126    1
    28   125   128    1
    29   126   127    2
    30    54    53    2
    31    44    47    1
    32    44    43    1
    33    47    48    1
    34    95    94    2
    35    94   101   am
    36   130   129   ar
    37   128   129    1
    38   103   104    2
    39   103   102    1
    40    48    50    1
    41   101   102    1
    42   105   106    1
    43   129   131   ar
    44   133   132    1
    45   133   134    1
    46   133   136    1
    47   132   138    1
    48   135   134    2
    49    82    83    1
    50    82    81    1
    51   107   106    1
    52   107   108    2
    53   136   137    1
    54   106   109    1
    55   138   137    1
    56    83    77    1
    57    37    35   am
    58    81    78    1
    59    29    28    1
    60   109   110    1
    61    34    35    1
    62    34    31    1
    63    58    59    1
    64    19    17   ar
    65   110   111    1
    66   110   112    1
    67    77    78    1
    68    35    36    2
    69    78    79    1
    70    33    32    2
    71    28    25    1
    72    62    59    1
    73    62    63    1
    74    42    39    1
    75    17    16    1
    76    17    18   ar
    77    32    31    1
    78    40    41    2
    79    40    39    1
    80    16    13    1
    81    59    60    1
    82    31    30    1
    83    25    24    1
    84    25    26    1
    85    39    38    1
    86    27    26    2
    87    64    63   ar
    88    64    66   ar
    89    63    65   ar
    90    14    13    1
    91    14    15    2
    92    13    12    1
    93    79    80    2
    94    79    84   am
    95    24    22   am
    96    23    22    2
    97    66    68   ar
    98    60    61    2
    99    22    21    1
   100    84    85    1
   101    20    21    1
   102    65    67   ar
   103     6     5    1
   104    68    67   ar
   105    87    86    2
   106    85    86    1
   107    85    88    1
   108     5     2    1
   109    76    75    1
   110     1     2    1
   111    88    89    1
   112    11     8    1
   113    75    74    1
   114     4     3    2
   115     2     3    1
   116    10     9    2
   117     9     8    1
   118     8     7    1
   119    89    91   ar
   120    89    90   ar
   121    74    73    1
   122    73    70    1
   123    72    71    2
   124    70    71    1
   125    70    69    1
