@<TRIPOS>MOLECULE
tmp/3b1rB01.pdb
 169 158 0 0 0
SMALL
GASTEIGER

@<TRIPOS>ATOM
      1  N          3.9970  -10.9180  -20.2900 N.3    19  ARG19      -0.1245
      2  CA         3.9390   -9.4770  -20.1350 C.3    19  ARG19       0.1563
      3  C          3.5320   -9.1000  -18.7080 C.2    19  ARG19       0.2260
      4  O          2.5070   -9.5740  -18.2040 O.2    19  ARG19      -0.2867
      5  CB         3.0040   -8.8740  -21.1960 C.3    19  ARG19       0.0307
      6  CG         3.6300   -8.8740  -22.6120 C.3    19  ARG19       0.0489
      7  CD         2.6320   -8.6550  -23.7430 C.3    19  ARG19       0.2205
      8  NE         3.3300   -8.6690  -25.0350 N.pl3  19  ARG19      -0.0865
      9  CZ         3.6620   -9.7670  -25.7130 C.cat  19  ARG19       0.5346
     10  NH1        3.3520  -10.9760  -25.2550 N.pl3  19  ARG19       0.1354
     11  NH2        4.3050   -9.6540  -26.8630 N.pl3  19  ARG19       0.1354
     12  N          8.1580   -9.2170  -22.5280 N.3   108  LEU108     -0.1231
     13  CA         8.0680   -9.0450  -23.9710 C.3   108  LEU108      0.1693
     14  C          7.5040   -7.6800  -24.3720 C.2   108  LEU108      0.2592
     15  O          7.3570   -7.4150  -25.5630 O.2   108  LEU108     -0.2718
     16  CB         7.2400  -10.1640  -24.6180 C.3   108  LEU108      0.0284
     17  CG         7.7350  -11.5990  -24.3900 C.3   108  LEU108      0.0019
     18  CD1        6.7760  -12.5770  -25.0650 C.3   108  LEU108      0.0001
     19  CD2        9.1910  -11.7970  -24.8830 C.3   108  LEU108      0.0001
     20  N          7.1910   -6.8340  -23.3850 N.am  109  ASP109     -0.1960
     21  CA         6.8970   -5.4130  -23.6230 C.3   109  ASP109      0.1840
     22  C          8.1090   -4.5170  -23.3430 C.2   109  ASP109      0.2622
     23  O          7.9910   -3.2790  -23.3550 O.2   109  ASP109     -0.2715
     24  CB         5.7380   -4.9340  -22.7580 C.3   109  ASP109      0.1450
     25  CG         4.3770   -5.2190  -23.3620 C.2   109  ASP109      0.3671
     26  OD1        4.2700   -5.7240  -24.5130 O.co2 109  ASP109     -0.2456
     27  OD2        3.3940   -4.9260  -22.6610 O.co2 109  ASP109     -0.2456
     28  N          9.2670   -5.1270  -23.0800 N.am  110  ASN110     -0.1972
     29  CA        10.5130   -4.3710  -22.8990 C.3   110  ASN110      0.1688
     30  C         10.4750   -3.4800  -21.6340 C.2   110  ASN110      0.2292
     31  O         11.0520   -2.3840  -21.5990 O.2   110  ASN110     -0.2864
     32  CB        10.8250   -3.5590  -24.1770 C.3   110  ASN110      0.1181
     33  CG        12.3060   -3.1600  -24.3020 C.2   110  ASN110      0.2629
     34  OD1       13.1850   -3.7640  -23.6900 O.2   110  ASN110     -0.2716
     35  ND2       12.5730   -2.1450  -25.1220 N.am  110  ASN110     -0.0877
     36  N         12.5550    6.2800  -25.5570 N.3   191  ASN191     -0.1240
     37  CA        11.2720    5.5690  -25.6210 C.3   191  ASN191      0.1653
     38  C         10.1700    6.4260  -24.9720 C.2   191  ASN191      0.2266
     39  O         10.4840    7.4330  -24.3260 O.2   191  ASN191     -0.2867
     40  CB        11.3600    4.1260  -25.0780 C.3   191  ASN191      0.1155
     41  CG        11.4760    4.0410  -23.5520 C.2   191  ASN191      0.2627
     42  OD1       10.8730    4.8210  -22.8060 O.2   191  ASN191     -0.2716
     43  ND2       12.2170    3.0400  -23.0860 N.am  191  ASN191     -0.0877
     44  N         10.4010    6.2640  -29.2880 N.3   219  THR219     -0.1203
     45  CA        10.0820    4.8980  -29.6970 C.3   219  THR219      0.1994
     46  C          8.9470    4.3440  -28.8380 C.2   219  THR219      0.2618
     47  O          8.7620    4.7550  -27.6840 O.2   219  THR219     -0.2717
     48  CB        11.3030    3.9670  -29.6370 C.3   219  THR219      0.1784
     49  OG1       11.7000    3.7870  -28.2690 O.3   219  THR219     -0.2211
     50  CG2       12.4680    4.5450  -30.4320 C.3   219  THR219      0.0376
     51  N          8.1990    3.4040  -29.4120 N.am  220  ARG220     -0.1965
     52  CA         6.9490    2.9450  -28.8390 C.3   220  ARG220      0.1729
     53  C          6.8200    1.4230  -28.9570 C.2   220  ARG220      0.2617
     54  O          5.7240    0.9140  -29.2100 O.2   220  ARG220     -0.2715
     55  CB         5.7850    3.6370  -29.5650 C.3   220  ARG220      0.0348
     56  CG         5.9280    5.1740  -29.6310 C.3   220  ARG220      0.0492
     57  CD         4.6650    5.8650  -30.1220 C.3   220  ARG220      0.2205
     58  NE         4.8310    7.3240  -30.1810 N.pl3 220  ARG220     -0.0865
     59  CZ         4.6550    8.1450  -29.1390 C.cat 220  ARG220      0.5346
     60  NH1        4.3220    7.6560  -27.9460 N.pl3 220  ARG220      0.1354
     61  NH2        4.8210    9.4570  -29.2840 N.pl3 220  ARG220      0.1354
     62  N          7.9330    0.6990  -28.7820 N.am  221  GLY221     -0.1940
     63  CA         7.8930   -0.7810  -28.8420 C.3   221  GLY221      0.2014
     64  C          7.1970   -1.2570  -30.1130 C.2   221  GLY221      0.2638
     65  O          7.4460   -0.7050  -31.1740 O.2   221  GLY221     -0.2714
     66  N          6.3010   -2.2470  -30.0160 N.am  222  GLU222     -0.1977
     67  CA         5.6990   -2.8340  -31.2230 C.3   222  GLU222      0.1602
     68  C          4.8370   -1.8510  -32.0260 C.2   222  GLU222      0.2287
     69  O          4.4680   -2.1390  -33.1670 O.2   222  GLU222     -0.2864
     70  CB         4.9660   -4.1630  -30.9370 C.3   222  GLU222      0.0415
     71  CG         3.5590   -4.0710  -30.3840 C.3   222  GLU222      0.1163
     72  CD         2.9240   -5.4590  -30.2090 C.2   222  GLU222      0.3649
     73  OE1        2.6330   -6.0960  -31.2390 O.co2 222  GLU222     -0.2457
     74  OE2        2.7200   -5.9090  -29.0570 O.co2 222  GLU222     -0.2457
     75  N          5.8850    1.0470  -33.0040 N.3   224  GLY224     -0.1210
     76  CA         6.7450    1.7650  -33.9570 C.3   224  GLY224      0.1956
     77  C          7.3660    2.9680  -33.2820 C.2   224  GLY224      0.2611
     78  O          7.7550    2.8780  -32.1390 O.2   224  GLY224     -0.2717
     79  N          7.4450    4.0930  -33.9850 N.am  225  ALA225     -0.1979
     80  CA         8.1370    5.2850  -33.4730 C.3   225  ALA225      0.1597
     81  C          7.5590    6.5770  -34.0480 C.2   225  ALA225      0.2287
     82  O          6.8670    6.5660  -35.0750 O.2   225  ALA225     -0.2864
     83  CB         9.6430    5.2060  -33.7710 C.3   225  ALA225      0.0319
     84  N          6.2260   -0.0420  -37.0140 N.3   238  ALA238     -0.1231
     85  CA         7.0490   -1.1810  -36.6410 C.3   238  ALA238      0.1694
     86  C          7.1580   -2.1160  -37.8520 C.2   238  ALA238      0.2592
     87  O          6.3380   -2.0560  -38.7770 O.2   238  ALA238     -0.2718
     88  CB         6.4320   -1.9100  -35.4600 C.3   238  ALA238      0.0304
     89  N          8.1850   -2.9500  -37.8720 N.am  239  VAL239     -0.1966
     90  CA         8.2570   -4.0580  -38.8200 C.3   239  VAL239      0.1727
     91  C          7.7820   -5.3180  -38.0940 C.2   239  VAL239      0.2616
     92  O          8.1820   -5.5530  -36.9610 O.2   239  VAL239     -0.2715
     93  CB         9.7030   -4.2740  -39.3210 C.3   239  VAL239      0.0290
     94  CG1        9.8080   -5.5340  -40.2040 C.3   239  VAL239      0.0023
     95  CG2       10.2080   -3.0330  -40.0530 C.3   239  VAL239      0.0023
     96  N          6.9170   -6.1110  -38.7230 N.am  240  ARG240     -0.1963
     97  CA         6.4970   -7.3920  -38.1350 C.3   240  ARG240      0.1729
     98  C          7.7460   -8.2160  -37.8080 C.2   240  ARG240      0.2616
     99  O          8.6270   -8.4020  -38.6560 O.2   240  ARG240     -0.2715
    100  CB         5.5270   -8.1300  -39.0840 C.3   240  ARG240      0.0348
    101  CG         5.7790   -9.6320  -39.3070 C.3   240  ARG240      0.0492
    102  CD         4.9160  -10.5070  -38.4190 C.3   240  ARG240      0.2205
    103  NE         3.5150  -10.5430  -38.8440 N.pl3 240  ARG240     -0.0865
    104  CZ         2.4990  -10.7710  -38.0170 C.cat 240  ARG240      0.5346
    105  NH1        2.7240  -10.9770  -36.7210 N.pl3 240  ARG240      0.1354
    106  NH2        1.2550  -10.7810  -38.4720 N.pl3 240  ARG240      0.1354
    107  N          7.8350   -8.6710  -36.5610 N.am  241  ALA241     -0.1977
    108  CA         8.9680   -9.4680  -36.1280 C.3   241  ALA241      0.1597
    109  C          8.8130  -10.9130  -36.5970 C.2   241  ALA241      0.2287
    110  O          7.7190  -11.4870  -36.5000 O.2   241  ALA241     -0.2864
    111  CB         9.0960   -9.4080  -34.6140 C.3   241  ALA241      0.0319
    112  N          9.0810  -12.8830  -31.5260 N.3   244  VAL244     -0.1245
    113  CA         9.2480  -11.9670  -30.4040 C.3   244  VAL244      0.1561
    114  C          9.9180  -12.7580  -29.2770 C.2   244  VAL244      0.2260
    115  O          9.2930  -13.6070  -28.6390 O.2   244  VAL244     -0.2867
    116  CB         7.8880  -11.3420  -29.9880 C.3   244  VAL244      0.0252
    117  CG1        8.0010  -10.5500  -28.6960 C.3   244  VAL244      0.0019
    118  CG2        7.3350  -10.4670  -31.1270 C.3   244  VAL244      0.0019
    119  N         13.1190   -8.1730  -26.1470 N.3   247  PRO247     -0.2116
    120  CA        13.1790   -6.7790  -26.5710 C.3   247  PRO247      0.1372
    121  C         14.4170   -6.0270  -26.0560 C.2   247  PRO247      0.2244
    122  O         14.6610   -4.9020  -26.5000 O.2   247  PRO247     -0.2868
    123  CB        11.8960   -6.1740  -25.9760 C.3   247  PRO247      0.0268
    124  CG        11.0700   -7.3360  -25.5340 C.3   247  PRO247      0.0207
    125  CD        12.0490   -8.3870  -25.1630 C.3   247  PRO247      0.0892
    126  N         16.4850   -3.4110  -28.2240 N.3   250  CYS250     -0.1221
    127  CA        15.7650   -2.9560  -29.4190 C.3   250  CYS250      0.1808
    128  C         15.9720   -1.4520  -29.6420 C.2   250  CYS250      0.2601
    129  O         16.1350   -1.0200  -30.7760 O.2   250  CYS250     -0.2717
    130  CB        14.2760   -3.2780  -29.3290 C.3   250  CYS250      0.0970
    131  SG        13.8080   -4.9560  -29.8550 S.3   250  CYS250     -0.0800
    132  N         15.9840   -0.6830  -28.5500 N.am  251  GLY251     -0.1957
    133  CA        16.1830    0.7780  -28.6040 C.3   251  GLY251      0.1869
    134  C         17.5270    1.1790  -29.1900 C.2   251  GLY251      0.2309
    135  O         17.6120    2.1330  -29.9750 O.2   251  GLY251     -0.2863
    136  N         17.7460    0.2850  -32.8860 N.3   254  PHE254     -0.1241
    137  CA        17.0330    1.3680  -33.5310 C.3   254  PHE254      0.1605
    138  C         17.9570    2.5890  -33.6580 C.2   254  PHE254      0.2264
    139  O         17.9660    3.2560  -34.6950 O.2   254  PHE254     -0.2867
    140  CB        15.7750    1.6790  -32.7010 C.3   254  PHE254      0.0534
    141  CG        14.9100    2.8160  -33.2470 C.ar  254  PHE254     -0.0203
    142  CD1       13.7480    2.5540  -33.9790 C.ar  254  PHE254     -0.0042
    143  CD2       15.2460    4.1430  -32.9810 C.ar  254  PHE254     -0.0042
    144  CE1       12.9460    3.6070  -34.4670 C.ar  254  PHE254     -0.0003
    145  CE2       14.4610    5.1870  -33.4580 C.ar  254  PHE254     -0.0003
    146  CZ        13.3100    4.9150  -34.2060 C.ar  254  PHE254     -0.0000
    147  N         13.5950    1.2580  -37.4770 N.3   276  SER276     -0.1217
    148  CA        12.4920    0.3910  -37.0450 C.3   276  SER276      0.1889
    149  C         12.7040   -1.0780  -37.4100 C.2   276  SER276      0.2288
    150  O         12.4260   -1.9690  -36.6000 O.2   276  SER276     -0.2866
    151  CB        11.1630    0.8860  -37.5800 C.3   276  SER276      0.2089
    152  OG        10.1060    0.0970  -37.0610 O.3   276  SER276     -0.2183
    153  N         15.1790   -2.7560  -35.0320 N.3   279  GLY279     -0.1210
    154  CA        14.4840   -3.2440  -33.8430 C.3   279  GLY279      0.1956
    155  C         13.8530   -4.6300  -34.0140 C.2   279  GLY279      0.2611
    156  O         14.0870   -5.5150  -33.1940 O.2   279  GLY279     -0.2717
    157  N         13.0640   -4.8200  -35.0790 N.am  280  ALA280     -0.1979
    158  CA        12.4400   -6.1310  -35.3810 C.3   280  ALA280      0.1597
    159  C         13.4320   -7.2810  -35.5870 C.2   280  ALA280      0.2287
    160  O         13.1580   -8.4180  -35.1920 O.2   280  ALA280     -0.2864
    161  CB        11.5440   -6.0190  -36.6010 C.3   280  ALA280      0.0319
    162  N         14.8050   -8.2470  -32.0000 N.3   283  ILE283     -0.1245
    163  CA        13.8260   -8.8180  -31.0460 C.3   283  ILE283      0.1561
    164  C         13.6180  -10.3380  -31.2330 C.2   283  ILE283      0.2260
    165  O         13.1280  -11.0290  -30.3300 O.2   283  ILE283     -0.2867
    166  CB        12.4700   -8.0600  -31.0870 C.3   283  ILE283      0.0252
    167  CG1       11.6670   -8.2790  -29.7920 C.3   283  ILE283      0.0019
    168  CG2       11.6560   -8.4560  -32.3150 C.3   283  ILE283      0.0019
    169  CD1       10.4710   -7.3790  -29.6570 C.3   283  ILE283      0.0001
@<TRIPOS>BOND
     1    94    93    1
     2    95    93    1
     3    93    90    1
     4   101   100    1
     5   101   102    1
     6   100    97    1
     7   103   102    1
     8   103   104    2
     9    90    91    1
    10    90    89    1
    11    87    86    2
    12    96    97    1
    13    96    91   am
    14    99    98    2
    15   106   104    1
    16    97    98    1
    17    91    92    2
    18   104   105    1
    19    89    86   am
    20    86    85    1
    21    98   107   am
    22   151   152    1
    23   151   148    1
    24   147   148    1
    25   149   148    1
    26   149   150    2
    27    84    85    1
    28    85    88    1
    29   161   158    1
    30   109   110    2
    31   109   108    1
    32   107   108    1
    33   108   111    1
    34   159   158    1
    35   159   160    2
    36   158   157    1
    37   157   155   am
    38    82    81    2
    39   153   154    1
    40   139   138    2
    41   144   146   ar
    42   144   142   ar
    43   146   145   ar
    44    81    80    1
    45   155   154    1
    46   155   156    2
    47    79    80    1
    48    79    77   am
    49   142   141   ar
    50    76    77    1
    51    76    75    1
    52    83    80    1
    53   138   137    1
    54   137   136    1
    55   137   140    1
    56   145   143   ar
    57    77    78    2
    58   141   143   ar
    59   141   140    1
    60    69    68    2
    61   168   166    1
    62    68    67    1
    63   162   163    1
    64   112   113    1
    65    73    72   ar
    66   164   163    1
    67   164   165    2
    68    67    70    1
    69    67    66    1
    70    65    64    2
    71   118   116    1
    72   166   163    1
    73   166   167    1
    74    70    71    1
    75   129   128    2
    76    50    48    1
    77   113   116    1
    78   113   114    1
    79    71    72    1
    80    72    74   ar
    81    58    57    1
    82    58    59    2
    83    57    56    1
    84    64    66   am
    85    64    63    1
    86   116   117    1
    87   135   134    2
    88   131   130    1
    89   167   169    1
    90    45    48    1
    91    45    44    1
    92    45    46    1
    93   128   127    1
    94   128   132   am
    95    48    49    1
    96    56    55    1
    97    55    52    1
    98   127   130    1
    99   127   126    1
   100    51    52    1
   101    51    46   am
   102    61    59    1
   103   114   115    2
   104    54    53    2
   105   134   133    1
   106    59    60    1
   107    53    52    1
   108    53    62   am
   109    63    62    1
   110    46    47    2
   111   133   132    1
   112    11     9    1
   113   120   119    1
   114   120   121    1
   115   120   123    1
   116   122   121    2
   117   119   125    1
   118   123   124    1
   119     9    10    1
   120     9     8    2
   121    37    36    1
   122    37    40    1
   123    37    38    1
   124    15    14    2
   125   124   125    1
   126    35    33   am
   127    40    41    1
   128    18    17    1
   129     8     7    1
   130    38    39    2
   131    19    17    1
   132    16    17    1
   133    16    13    1
   134    26    25   ar
   135    14    13    1
   136    14    20   am
   137    33    32    1
   138    33    34    2
   139    32    29    1
   140    13    12    1
   141     7     6    1
   142    21    20    1
   143    21    22    1
   144    21    24    1
   145    41    43   am
   146    41    42    2
   147    25    24    1
   148    25    27   ar
   149    23    22    2
   150    22    28   am
   151    28    29    1
   152    29    30    1
   153     6     5    1
   154    30    31    2
   155     5     2    1
   156     1     2    1
   157     2     3    1
   158     3     4    2
