@<TRIPOS>MOLECULE
tmp/3b1rB00.pdb
 200 184 0 0 0
SMALL
GASTEIGER

@<TRIPOS>ATOM
      1  N         27.6730    3.3100  -22.2200 N.3     7  SER7       -0.1217
      2  CA        28.1620    2.2070  -21.4060 C.3     7  SER7        0.1889
      3  C         28.6680    1.0410  -22.2400 C.2     7  SER7        0.2288
      4  O         28.2180    0.8160  -23.3720 O.2     7  SER7       -0.2866
      5  CB        27.0910    1.7370  -20.4140 C.3     7  SER7        0.2089
      6  OG        25.8760    1.4440  -21.0680 O.3     7  SER7       -0.2183
      7  N         29.1730   -2.9270  -21.2150 N.3     9  ALA9       -0.1245
      8  CA        28.7000   -3.7250  -20.0730 C.3     9  ALA9        0.1562
      9  C         28.4280   -5.1750  -20.4400 C.2     9  ALA9        0.2260
     10  O         28.0700   -5.4790  -21.5810 O.2     9  ALA9       -0.2867
     11  CB        27.4260   -3.1130  -19.5140 C.3     9  ALA9        0.0290
     12  N         25.7840   -8.1170  -19.8340 N.3    11  ASP11      -0.1239
     13  CA        24.3750   -8.2020  -19.4890 C.3    11  ASP11       0.1674
     14  C         23.9430   -9.6110  -19.0720 C.2    11  ASP11       0.2266
     15  O         24.2320  -10.5920  -19.7490 O.2    11  ASP11      -0.2867
     16  CB        23.4960   -7.7900  -20.6640 C.3    11  ASP11       0.1410
     17  CG        23.5690   -6.3110  -20.9780 C.2    11  ASP11       0.3668
     18  OD1       24.0770   -5.5170  -20.1530 O.co2  11  ASP11      -0.2456
     19  OD2       23.1000   -5.9560  -22.0760 O.co2  11  ASP11      -0.2456
     20  N         25.7410   -3.0540  -22.9270 N.3    47  GLY47      -0.1210
     21  CA        26.1000   -1.6430  -22.7670 C.3    47  GLY47       0.1956
     22  C         25.6020   -0.8530  -23.9650 C.2    47  GLY47       0.2612
     23  O         25.6670   -1.3260  -25.1030 O.2    47  GLY47      -0.2717
     24  N         25.0960    0.3560  -23.7140 N.am   48  CYS48      -0.1970
     25  CA        24.4390    1.1580  -24.7590 C.3    48  CYS48       0.1712
     26  C         25.3450    1.4960  -25.9420 C.2    48  CYS48       0.2296
     27  O         24.9640    1.3190  -27.1050 O.2    48  CYS48      -0.2864
     28  CB        23.8270    2.4090  -24.1320 C.3    48  CYS48       0.0983
     29  SG        22.6180    1.9940  -22.8400 S.3    48  CYS48      -0.0798
     30  N         26.0690   -1.7410  -27.9800 N.3    51  ASN51      -0.1240
     31  CA        24.9040   -2.1640  -28.7550 C.3    51  ASN51       0.1653
     32  C         24.7270   -1.2730  -29.9950 C.2    51  ASN51       0.2266
     33  O         24.6510   -1.7700  -31.1110 O.2    51  ASN51      -0.2867
     34  CB        23.6140   -2.1200  -27.9040 C.3    51  ASN51       0.1155
     35  CG        23.6940   -2.9640  -26.6160 C.2    51  ASN51       0.2627
     36  OD1       24.4950   -3.8990  -26.4940 O.2    51  ASN51      -0.2716
     37  ND2       22.8310   -2.6390  -25.6610 N.am   51  ASN51      -0.0877
     38  N         25.0270   -5.5000  -15.9330 N.3   102  ALA102     -0.1245
     39  CA        23.6020   -5.2340  -15.7730 C.3   102  ALA102      0.1562
     40  C         22.8000   -6.5050  -15.5030 C.2   102  ALA102      0.2260
     41  O         22.8670   -7.4570  -16.2770 O.2   102  ALA102     -0.2867
     42  CB        23.0470   -4.5040  -17.0040 C.3   102  ALA102      0.0290
     43  N         19.1840   -7.6890  -15.6110 N.3   104  ILE104     -0.1245
     44  CA        18.0070   -7.1640  -16.2900 C.3   104  ILE104      0.1561
     45  C         16.8980   -8.2000  -16.1710 C.2   104  ILE104      0.2260
     46  O         17.0090   -9.2900  -16.7270 O.2   104  ILE104     -0.2867
     47  CB        18.3080   -6.8990  -17.8120 C.3   104  ILE104      0.0252
     48  CG1       19.4940   -5.9260  -17.9790 C.3   104  ILE104      0.0019
     49  CG2       17.0540   -6.4350  -18.5500 C.3   104  ILE104      0.0019
     50  CD1       19.8980   -5.6270  -19.4440 C.3   104  ILE104      0.0001
     51  N          9.2670   -5.1270  -23.0800 N.3   110  ASN110     -0.1240
     52  CA        10.5130   -4.3710  -22.8990 C.3   110  ASN110      0.1653
     53  C         10.4750   -3.4800  -21.6340 C.2   110  ASN110      0.2266
     54  O         11.0520   -2.3840  -21.5990 O.2   110  ASN110     -0.2867
     55  CB        10.8250   -3.5590  -24.1770 C.3   110  ASN110      0.1155
     56  CG        12.3060   -3.1600  -24.3020 C.2   110  ASN110      0.2627
     57  OD1       13.1850   -3.7640  -23.6900 O.2   110  ASN110     -0.2716
     58  ND2       12.5730   -2.1450  -25.1220 N.am  110  ASN110     -0.0877
     59  N         12.0790   -3.0220  -18.7490 N.3   112  GLN112     -0.1245
     60  CA        13.3820   -3.3610  -18.1660 C.3   112  GLN112      0.1566
     61  C         13.5870   -2.8340  -16.7390 C.2   112  GLN112      0.2260
     62  O         13.7780   -1.6310  -16.5140 O.2   112  GLN112     -0.2867
     63  CB        14.5300   -2.8810  -19.0700 C.3   112  GLN112      0.0367
     64  CG        14.7550   -3.7060  -20.3530 C.3   112  GLN112      0.0905
     65  CD        16.0390   -3.3010  -21.0830 C.2   112  GLN112      0.2608
     66  OE1       17.1150   -3.2580  -20.4860 O.2   112  GLN112     -0.2717
     67  NE2       15.9300   -3.0250  -22.3880 N.am  112  GLN112     -0.0878
     68  N         16.2460   -2.9900  -14.0890 N.3   114  THR114     -0.1218
     69  CA        17.6590   -3.3380  -14.0970 C.3   114  THR114      0.1862
     70  C         18.3430   -2.9670  -12.8110 C.2   114  THR114      0.2287
     71  O         18.1500   -1.8770  -12.2760 O.2   114  THR114     -0.2866
     72  CB        18.4160   -2.6820  -15.2840 C.3   114  THR114      0.1770
     73  OG1       17.8310   -3.1160  -16.5120 O.3   114  THR114     -0.2211
     74  CG2       19.8840   -3.0840  -15.2910 C.3   114  THR114      0.0375
     75  N         22.0520   -2.3650  -11.7170 N.3   116  PHE116     -0.1241
     76  CA        23.2900   -2.0330  -12.4280 C.3   116  PHE116      0.1605
     77  C         24.4590   -1.8800  -11.4640 C.2   116  PHE116      0.2264
     78  O         24.3570   -1.1360  -10.4820 O.2   116  PHE116     -0.2867
     79  CB        23.0740   -0.7360  -13.2070 C.3   116  PHE116      0.0534
     80  CG        23.9910   -0.5640  -14.3650 C.ar  116  PHE116     -0.0203
     81  CD1       23.7650   -1.2450  -15.5570 C.ar  116  PHE116     -0.0042
     82  CD2       25.0770    0.2920  -14.2740 C.ar  116  PHE116     -0.0042
     83  CE1       24.6110   -1.0800  -16.6380 C.ar  116  PHE116     -0.0003
     84  CE2       25.9240    0.4670  -15.3450 C.ar  116  PHE116     -0.0003
     85  CZ        25.6910   -0.2120  -16.5370 C.ar  116  PHE116     -0.0000
     86  N         32.3660    1.9700  -15.4510 N.3   121  MET121     -0.1245
     87  CA        31.5780    3.0760  -16.0180 C.3   121  MET121      0.1570
     88  C         31.6370    4.3770  -15.2000 C.2   121  MET121      0.2261
     89  O         31.4190    5.4720  -15.7510 O.2   121  MET121     -0.2867
     90  CB        30.1160    2.6530  -16.2250 C.3   121  MET121      0.0387
     91  CG        29.2830    3.6610  -17.0110 C.3   121  MET121      0.0595
     92  SD        27.5260    3.2930  -17.1370 S.3   121  MET121     -0.1393
     93  CE        26.9480    3.6680  -15.4790 C.3   121  MET121      0.0692
     94  N         23.3430    6.4190  -22.1730 N.3   142  PRO142     -0.2102
     95  CA        23.5860    6.1740  -20.7470 C.3   142  PRO142      0.1504
     96  C         25.0530    5.8910  -20.4150 C.2   142  PRO142      0.2575
     97  O         25.6970    5.0750  -21.0740 O.2   142  PRO142     -0.2718
     98  CB        22.7060    4.9500  -20.4520 C.3   142  PRO142      0.0282
     99  CG        21.5660    5.1200  -21.3750 C.3   142  PRO142      0.0208
    100  CD        22.1600    5.6820  -22.6470 C.3   142  PRO142      0.0893
    101  N         25.5650    6.5750  -19.3940 N.am  143  ASP143     -0.1974
    102  CA        26.9560    6.4630  -18.9920 C.3   143  ASP143      0.1708
    103  C         27.0510    6.8790  -17.5270 C.2   143  ASP143      0.2293
    104  O         26.0180    7.1330  -16.8790 O.2   143  ASP143     -0.2864
    105  CB        27.7980    7.4070  -19.8650 C.3   143  ASP143      0.1436
    106  CG        29.0930    6.7810  -20.3550 C.2   143  ASP143      0.3671
    107  OD1       29.5880    5.8210  -19.7360 O.co2 143  ASP143     -0.2456
    108  OD2       29.6290    7.2820  -21.3670 O.co2 143  ASP143     -0.2456
    109  N         20.5390   10.5480  -25.8800 N.3   165  ASP165     -0.1239
    110  CA        19.6740    9.4600  -25.3930 C.3   165  ASP165      0.1674
    111  C         19.9990    9.2770  -23.9030 C.2   165  ASP165      0.2266
    112  O         20.8380    8.4380  -23.5490 O.2   165  ASP165     -0.2867
    113  CB        19.9420    8.1810  -26.2170 C.3   165  ASP165      0.1410
    114  CG        19.1750    6.9360  -25.7090 C.2   165  ASP165      0.3668
    115  OD1       18.4600    6.9950  -24.6850 O.co2 165  ASP165     -0.2456
    116  OD2       19.3070    5.8740  -26.3540 O.co2 165  ASP165     -0.2456
    117  N         18.6680    5.1390  -19.4080 N.3   168  GLN168     -0.1231
    118  CA        18.6820    4.6370  -18.0230 C.3   168  GLN168      0.1698
    119  C         19.4580    5.5470  -17.0770 C.2   168  GLN168      0.2592
    120  O         19.5720    5.2510  -15.8970 O.2   168  GLN168     -0.2718
    121  CB        19.2850    3.2220  -17.9560 C.3   168  GLN168      0.0381
    122  CG        18.4110    2.1180  -18.5420 C.3   168  GLN168      0.0905
    123  CD        18.7300    1.8150  -19.9960 C.2   168  GLN168      0.2608
    124  OE1       19.2820    2.6520  -20.7150 O.2   168  GLN168     -0.2717
    125  NE2       18.3750    0.6160  -20.4390 N.am  168  GLN168     -0.0878
    126  N         20.0040    6.6410  -17.5980 N.am  169  GLY169     -0.1957
    127  CA        20.7760    7.5770  -16.7860 C.3   169  GLY169      0.1869
    128  C         19.9430    8.7480  -16.2970 C.2   169  GLY169      0.2309
    129  O         20.4010    9.5290  -15.4730 O.2   169  GLY169     -0.2863
    130  N         20.0280   10.3330  -12.7860 N.3   172  LEU172     -0.1245
    131  CA        21.1900   11.1450  -12.4120 C.3   172  LEU172      0.1561
    132  C         21.0120   12.6340  -12.7550 C.2   172  LEU172      0.2260
    133  O         21.6560   13.5030  -12.1630 O.2   172  LEU172     -0.2867
    134  CB        22.4500   10.6160  -13.0970 C.3   172  LEU172      0.0270
    135  CG        23.3040    9.4280  -12.5840 C.3   172  LEU172      0.0019
    136  CD1       23.2320    9.2140  -11.0520 C.3   172  LEU172      0.0001
    137  CD2       23.0120    8.1340  -13.3390 C.3   172  LEU172      0.0001
    138  N         10.4340    7.0490  -21.1760 N.3   194  GLU194     -0.1245
    139  CA        11.5310    8.0120  -20.9340 C.3   194  GLU194      0.1567
    140  C         11.1870    9.4720  -21.3190 C.2   194  GLU194      0.2260
    141  O         11.6310   10.4230  -20.6540 O.2   194  GLU194     -0.2867
    142  CB        12.8180    7.5760  -21.6620 C.3   194  GLU194      0.0388
    143  CG        13.4930    6.3240  -21.0780 C.3   194  GLU194      0.1160
    144  CD        14.4890    5.6330  -22.0370 C.2   194  GLU194      0.3649
    145  OE1       14.5090    5.9430  -23.2610 O.co2 194  GLU194     -0.2457
    146  OE2       15.2560    4.7690  -21.5510 O.co2 194  GLU194     -0.2457
    147  N         13.1190   -8.1730  -26.1470 N.3   247  PRO247     -0.2102
    148  CA        13.1790   -6.7790  -26.5710 C.3   247  PRO247      0.1504
    149  C         14.4170   -6.0270  -26.0560 C.2   247  PRO247      0.2576
    150  O         14.6610   -4.9020  -26.5000 O.2   247  PRO247     -0.2718
    151  CB        11.8960   -6.1740  -25.9760 C.3   247  PRO247      0.0282
    152  CG        11.0700   -7.3360  -25.5340 C.3   247  PRO247      0.0208
    153  CD        12.0490   -8.3870  -25.1630 C.3   247  PRO247      0.0893
    154  N         15.1870   -6.6380  -25.1460 N.am  248  THR248     -0.1939
    155  CA        16.3690   -5.9870  -24.5690 C.3   248  THR248      0.2028
    156  C         17.3490   -5.5650  -25.6460 C.2   248  THR248      0.2643
    157  O         17.9360   -6.4020  -26.3220 O.2   248  THR248     -0.2714
    158  CB        17.1050   -6.8800  -23.5350 C.3   248  THR248      0.1808
    159  OG1       16.1570   -7.4440  -22.6100 O.3   248  THR248     -0.2208
    160  CG2       18.1460   -6.0520  -22.7530 C.3   248  THR248      0.0379
    161  N         17.5220   -4.2560  -25.8030 N.am  249  GLY249     -0.1939
    162  CA        18.4390   -3.7310  -26.8100 C.3   249  GLY249      0.2014
    163  C         17.8100   -3.3120  -28.1280 C.2   249  GLY249      0.2639
    164  O         18.5270   -2.9410  -29.0680 O.2   249  GLY249     -0.2714
    165  N         16.4850   -3.4110  -28.2240 N.am  250  CYS250     -0.1953
    166  CA        15.7650   -2.9560  -29.4190 C.3   250  CYS250      0.1843
    167  C         15.9720   -1.4520  -29.6420 C.2   250  CYS250      0.2626
    168  O         16.1350   -1.0200  -30.7760 O.2   250  CYS250     -0.2714
    169  CB        14.2760   -3.2780  -29.3290 C.3   250  CYS250      0.0997
    170  SG        13.8080   -4.9560  -29.8550 S.3   250  CYS250     -0.0797
    171  N         15.9840   -0.6830  -28.5500 N.am  251  GLY251     -0.1940
    172  CA        16.1830    0.7780  -28.6040 C.3   251  GLY251      0.2014
    173  C         17.5270    1.1790  -29.1900 C.2   251  GLY251      0.2638
    174  O         17.6120    2.1330  -29.9750 O.2   251  GLY251     -0.2714
    175  N         18.5790    0.4530  -28.8190 N.am  252  ASP252     -0.1971
    176  CA        19.9160    0.7290  -29.3490 C.3   252  ASP252      0.1709
    177  C         20.1260    0.1720  -30.7670 C.2   252  ASP252      0.2293
    178  O         20.9000    0.7300  -31.5430 O.2   252  ASP252     -0.2864
    179  CB        20.9950    0.2190  -28.3970 C.3   252  ASP252      0.1436
    180  CG        20.9590    0.9130  -27.0470 C.2   252  ASP252      0.3671
    181  OD1       20.4510    2.0590  -26.9680 O.co2 252  ASP252     -0.2456
    182  OD2       21.4130    0.3000  -26.0520 O.co2 252  ASP252     -0.2456
    183  N         18.7590    2.8600  -32.6250 N.3   255  ARG255     -0.1245
    184  CA        19.6790    3.9780  -32.6770 C.3   255  ARG255      0.1563
    185  C         20.6510    3.8790  -33.8620 C.2   255  ARG255      0.2260
    186  O         20.8580    4.8630  -34.5830 O.2   255  ARG255     -0.2867
    187  CB        20.4640    4.1270  -31.3690 C.3   255  ARG255      0.0307
    188  CG        19.6330    4.4240  -30.1210 C.3   255  ARG255      0.0489
    189  CD        18.4820    5.3900  -30.3780 C.3   255  ARG255      0.2205
    190  NE        17.8510    5.7740  -29.1230 N.pl3 255  ARG255     -0.0865
    191  CZ        16.7400    5.2230  -28.6390 C.cat 255  ARG255      0.5346
    192  NH1       16.1330    4.2390  -29.3010 N.pl3 255  ARG255      0.1354
    193  NH2       16.2450    5.6450  -27.4770 N.pl3 255  ARG255      0.1354
    194  N         21.3790   -8.3320  -26.3280 N.3   288  PRO288     -0.2116
    195  CA        21.3330   -7.1260  -27.1580 C.3   288  PRO288      0.1372
    196  C         22.1230   -7.1930  -28.4740 C.2   288  PRO288      0.2244
    197  O         21.8140   -6.4330  -29.3870 O.2   288  PRO288     -0.2868
    198  CB        21.8820   -6.0330  -26.2300 C.3   288  PRO288      0.0268
    199  CG        22.6510   -6.7330  -25.2140 C.3   288  PRO288      0.0207
    200  CD        22.0740   -8.1020  -25.0500 C.3   288  PRO288      0.0892
@<TRIPOS>BOND
     1   186   185    2
     2   185   184    1
     3   184   183    1
     4   184   187    1
     5   178   177    2
     6   187   188    1
     7    33    32    2
     8   168   167    2
     9   177   176    1
    10   189   188    1
    11   189   190    1
    12    32    31    1
    13   174   173    2
    14   170   169    1
    15   167   166    1
    16   167   171   am
    17   166   169    1
    18   166   165    1
    19   197   196    2
    20   176   175    1
    21   176   179    1
    22   192   191    1
    23   173   175   am
    24   173   172    1
    25   190   191    2
    26   164   163    2
    27    31    30    1
    28    31    34    1
    29   191   193    1
    30   172   171    1
    31   196   195    1
    32   179   180    1
    33   165   163   am
    34   163   162    1
    35    34    35    1
    36   195   194    1
    37   195   198    1
    38    27    26    2
    39   180   181   ar
    40   180   182   ar
    41   162   161    1
    42    35    36    2
    43    35    37   am
    44   148   147    1
    45   148   149    1
    46   148   151    1
    47   150   149    2
    48   116   114   ar
    49   194   200    1
    50   157   156    2
    51   198   199    1
    52   113   114    1
    53   113   110    1
    54   147   153    1
    55   149   154   am
    56   151   152    1
    57    26    25    1
    58   109   110    1
    59   161   156   am
    60   114   115   ar
    61   156   155    1
    62   152   153    1
    63   110   111    1
    64   199   200    1
    65   154   155    1
    66    58    56   am
    67    23    22    2
    68    25    28    1
    69    25    24    1
    70   155   158    1
    71    56    55    1
    72    56    57    2
    73    55    52    1
    74    28    29    1
    75    22    24   am
    76    22    21    1
    77   111   112    2
    78   158   160    1
    79   158   159    1
    80     4     3    2
    81   145   144   ar
    82    51    52    1
    83    20    21    1
    84    52    53    1
    85   100    94    1
    86   100    99    1
    87    67    65   am
    88     3     2    1
    89     1     2    1
    90    94    95    1
    91    19    17   ar
    92   144   146   ar
    93   144   143    1
    94   142   143    1
    95   142   139    1
    96    53    54    2
    97    10     9    2
    98     2     5    1
    99    99    98    1
   100   108   106   ar
   101   140   139    1
   102   140   141    2
   103     7     8    1
   104   138   139    1
   105    65    66    2
   106    65    64    1
   107    97    96    2
   108     6     5    1
   109    17    16    1
   110    17    18   ar
   111    95    98    1
   112    95    96    1
   113   124   123    2
   114    16    13    1
   115     9     8    1
   116   125   123   am
   117    96   101   am
   118   106   105    1
   119   106   107   ar
   120    64    63    1
   121     8    11    1
   122   123   122    1
   123   105   102    1
   124    12    13    1
   125    15    14    2
   126    13    14    1
   127    50    48    1
   128   117   118    1
   129   101   102    1
   130    63    60    1
   131   102   103    1
   132    59    60    1
   133    49    47    1
   134   122   121    1
   135    60    61    1
   136   118   121    1
   137   118   119    1
   138    48    47    1
   139    47    44    1
   140   126   119   am
   141   126   127    1
   142   103   104    2
   143    92    91    1
   144    92    93    1
   145   119   120    2
   146    91    90    1
   147    42    39    1
   148   127   128    1
   149    61    62    2
   150    46    45    2
   151    83    85   ar
   152    83    81   ar
   153    85    84   ar
   154    73    72    1
   155   128   129    2
   156    44    45    1
   157    44    43    1
   158    41    40    2
   159    90    87    1
   160    87    86    1
   161    87    88    1
   162    38    39    1
   163    39    40    1
   164    89    88    2
   165    81    80   ar
   166    84    82   ar
   167    74    72    1
   168    72    69    1
   169    80    82   ar
   170    80    79    1
   171    69    68    1
   172    69    70    1
   173   137   135    1
   174    79    76    1
   175   134   135    1
   176   134   131    1
   177    70    71    2
   178   130   131    1
   179   132   131    1
   180   132   133    2
   181   135   136    1
   182    76    75    1
   183    76    77    1
   184    77    78    2
