@<TRIPOS>MOLECULE
tmp/3b1uA00.pdb
 162 154 0 0 0
SMALL
GASTEIGER

@<TRIPOS>ATOM
      1  N        -31.1630   22.9490  -15.0490 N.3   309  ASP309     -0.1225
      2  CA       -31.2310   22.3890  -16.4090 C.3   309  ASP309      0.1805
      3  C        -30.2170   21.2670  -16.6970 C.2   309  ASP309      0.2598
      4  O        -29.8970   20.9990  -17.8570 O.2   309  ASP309     -0.2718
      5  CB       -31.1250   23.5000  -17.4680 C.3   309  ASP309      0.1424
      6  CG       -32.1680   24.5910  -17.2830 C.2   309  ASP309      0.3668
      7  OD1      -32.0120   25.6720  -17.8920 O.co2 309  ASP309     -0.2456
      8  OD2      -33.1450   24.3730  -16.5310 O.co2 309  ASP309     -0.2456
      9  N        -29.7360   20.6090  -15.6420 N.am  310  ASP310     -0.1960
     10  CA       -28.8380   19.4590  -15.7710 C.3   310  ASP310      0.1840
     11  C        -29.6540   18.1680  -15.6820 C.2   310  ASP310      0.2622
     12  O        -30.1350   17.7980  -14.6110 O.2   310  ASP310     -0.2715
     13  CB       -27.7660   19.5000  -14.6760 C.3   310  ASP310      0.1450
     14  CG       -26.7660   18.3550  -14.7750 C.2   310  ASP310      0.3671
     15  OD1      -26.7330   17.6500  -15.8080 O.co2 310  ASP310     -0.2456
     16  OD2      -26.0000   18.1650  -13.8080 O.co2 310  ASP310     -0.2456
     17  N        -29.7960   17.4880  -16.8180 N.am  311  GLN311     -0.1963
     18  CA       -30.6580   16.3060  -16.9280 C.3   311  GLN311      0.1733
     19  C        -29.9230   14.9780  -16.7190 C.2   311  GLN311      0.2616
     20  O        -30.5530   13.9210  -16.6990 O.2   311  GLN311     -0.2715
     21  CB       -31.3420   16.2930  -18.2990 C.3   311  GLN311      0.0408
     22  CG       -30.4120   15.9580  -19.4650 C.3   311  GLN311      0.0908
     23  CD       -30.9510   16.4210  -20.7990 C.2   311  GLN311      0.2608
     24  OE1      -30.5220   17.4420  -21.3310 O.2   311  GLN311     -0.2717
     25  NE2      -31.9040   15.6740  -21.3440 N.am  311  GLN311     -0.0878
     26  N        -28.6020   15.0310  -16.5590 N.am  312  TRP312     -0.1974
     27  CA       -27.7760   13.8190  -16.5790 C.3   312  TRP312      0.1640
     28  C        -27.5840   13.2420  -15.1790 C.2   312  TRP312      0.2290
     29  O        -26.5240   13.3930  -14.5610 O.2   312  TRP312     -0.2864
     30  CB       -26.4390   14.1070  -17.2650 C.3   312  TRP312      0.0576
     31  CG       -26.6270   14.7810  -18.5870 C.ar  312  TRP312      0.0006
     32  CD1      -26.3110   16.0710  -18.9050 C.ar  312  TRP312      0.0946
     33  CD2      -27.2190   14.2130  -19.7610 C.ar  312  TRP312      0.0152
     34  NE1      -26.6540   16.3350  -20.2090 N.ar  312  TRP312     -0.2442
     35  CE2      -27.2150   15.2120  -20.7570 C.ar  312  TRP312      0.0810
     36  CE3      -27.7440   12.9520  -20.0690 C.ar  312  TRP312      0.0012
     37  CZ2      -27.7150   14.9890  -22.0450 C.ar  312  TRP312      0.0191
     38  CZ3      -28.2420   12.7320  -21.3480 C.ar  312  TRP312      0.0001
     39  CH2      -28.2220   13.7450  -22.3190 C.ar  312  TRP312      0.0015
     40  N        -27.2450   10.2360  -14.2550 N.3   314  GLN314     -0.1231
     41  CA       -26.2130    9.2000  -14.2370 C.3   314  GLN314      0.1698
     42  C        -24.8430    9.7400  -13.8320 C.2   314  GLN314      0.2592
     43  O        -24.0520    9.0400  -13.1990 O.2   314  GLN314     -0.2718
     44  CB       -26.0990    8.5720  -15.6290 C.3   314  GLN314      0.0381
     45  CG       -25.0030    7.5140  -15.8010 C.3   314  GLN314      0.0905
     46  CD       -25.2100    6.2760  -14.9440 C.2   314  GLN314      0.2608
     47  OE1      -24.2510    5.5800  -14.6140 O.2   314  GLN314     -0.2717
     48  NE2      -26.4600    5.9900  -14.5900 N.am  314  GLN314     -0.0878
     49  N        -24.5660   10.9830  -14.2030 N.am  315  ASP315     -0.1974
     50  CA       -23.1930   11.4730  -14.2590 C.3   315  ASP315      0.1709
     51  C        -22.6550   12.0980  -12.9720 C.2   315  ASP315      0.2293
     52  O        -21.4560   12.0150  -12.7060 O.2   315  ASP315     -0.2864
     53  CB       -23.0630   12.4510  -15.4270 C.3   315  ASP315      0.1436
     54  CG       -23.2200   11.7670  -16.7790 C.2   315  ASP315      0.3671
     55  OD1      -23.0190   10.5320  -16.8690 O.co2 315  ASP315     -0.2456
     56  OD2      -23.5420   12.4670  -17.7530 O.co2 315  ASP315     -0.2456
     57  N        -21.7080   19.8560  -12.1110 N.3   339  ARG339     -0.1245
     58  CA       -22.5330   20.5650  -13.0810 C.3   339  ARG339      0.1563
     59  C        -23.7950   21.0700  -12.3610 C.2   339  ARG339      0.2260
     60  O        -23.7570   21.3160  -11.1560 O.2   339  ARG339     -0.2867
     61  CB       -22.8590   19.6440  -14.2660 C.3   339  ARG339      0.0307
     62  CG       -22.8130   20.3410  -15.6190 C.3   339  ARG339      0.0489
     63  CD       -21.4810   20.1250  -16.3360 C.3   339  ARG339      0.2205
     64  NE       -21.4930   18.9010  -17.1360 N.pl3 339  ARG339     -0.0865
     65  CZ       -22.1360   18.7540  -18.2970 C.cat 339  ARG339      0.5346
     66  NH1      -22.8400   19.7520  -18.8240 N.pl3 339  ARG339      0.1354
     67  NH2      -22.0810   17.5950  -18.9380 N.pl3 339  ARG339      0.1354
     68  N        -14.6890   14.9730  -18.9140 N.3   368  GLY368     -0.1225
     69  CA       -15.9210   14.2130  -19.1010 C.3   368  GLY368      0.1811
     70  C        -15.8430   12.7850  -18.5820 C.2   368  GLY368      0.2280
     71  O        -16.8590   12.1970  -18.2170 O.2   368  GLY368     -0.2866
     72  N        -17.3310   11.9950  -15.1590 N.3   371  SER371     -0.1217
     73  CA       -18.7710   11.7700  -15.0500 C.3   371  SER371      0.1889
     74  C        -19.0150   10.2780  -14.8590 C.2   371  SER371      0.2288
     75  O        -18.3950    9.4570  -15.5300 O.2   371  SER371     -0.2866
     76  CB       -19.4910   12.2640  -16.3040 C.3   371  SER371      0.2089
     77  OG       -19.3850   13.6700  -16.4380 O.3   371  SER371     -0.2183
     78  N        -21.2600    8.1160  -15.5760 N.3   373  GLY373     -0.1225
     79  CA       -21.6280    7.2310  -16.6790 C.3   373  GLY373      0.1811
     80  C        -20.4060    6.4420  -17.1260 C.2   373  GLY373      0.2280
     81  O        -20.5270    5.3810  -17.7430 O.2   373  GLY373     -0.2866
     82  N        -18.3350   11.7220  -25.7790 N.3   434  VAL434     -0.1245
     83  CA       -18.6330   11.8620  -24.3580 C.3   434  VAL434      0.1561
     84  C        -17.6120   11.0650  -23.5410 C.2   434  VAL434      0.2260
     85  O        -17.0570   11.5730  -22.5670 O.2   434  VAL434     -0.2867
     86  CB       -20.0680   11.3960  -24.0450 C.3   434  VAL434      0.0252
     87  CG1      -20.3530   11.5030  -22.5570 C.3   434  VAL434      0.0019
     88  CG2      -21.0760   12.2160  -24.8540 C.3   434  VAL434      0.0019
     89  N        -17.7820    7.5610  -22.2560 N.3   436  HIS436     -0.1241
     90  CA       -18.2680    6.7880  -21.1110 C.3   436  HIS436      0.1621
     91  C        -18.4430    5.3160  -21.4690 C.2   436  HIS436      0.2264
     92  O        -18.9490    4.9970  -22.5440 O.2   436  HIS436     -0.2867
     93  CB       -19.6040    7.3530  -20.6420 C.3   436  HIS436      0.0745
     94  CG       -19.5230    8.7500  -20.1080 C.ar  436  HIS436      0.0817
     95  ND1      -20.6130    9.4000  -19.5710 N.ar  436  HIS436     -0.2268
     96  CD2      -18.4830    9.6130  -20.0090 C.ar  436  HIS436      0.1154
     97  CE1      -20.2520   10.6090  -19.1800 C.ar  436  HIS436      0.1986
     98  NE2      -18.9640   10.7620  -19.4300 N.ar  436  HIS436     -0.2212
     99  N        -20.6030    3.2840  -20.3920 N.3   438  ASP438     -0.1225
    100  CA       -22.0330    2.9710  -20.5520 C.3   438  ASP438      0.1805
    101  C        -22.5570    3.2610  -21.9680 C.2   438  ASP438      0.2597
    102  O        -23.6600    2.8460  -22.3180 O.2   438  ASP438     -0.2718
    103  CB       -22.8920    3.6800  -19.4800 C.3   438  ASP438      0.1424
    104  CG       -23.0740    5.1750  -19.7360 C.2   438  ASP438      0.3668
    105  OD1      -24.0280    5.7540  -19.1730 O.co2 438  ASP438     -0.2456
    106  OD2      -22.2790    5.7770  -20.4860 O.co2 438  ASP438     -0.2456
    107  N        -21.7630    3.9680  -22.7730 N.am  439  GLU439     -0.1979
    108  CA       -22.0900    4.1910  -24.1820 C.3   439  GLU439      0.1602
    109  C        -21.8860    2.9720  -25.0800 C.2   439  GLU439      0.2287
    110  O        -22.4060    2.9470  -26.1920 O.2   439  GLU439     -0.2864
    111  CB       -21.2600    5.3390  -24.7530 C.3   439  GLU439      0.0415
    112  CG       -21.6400    6.7010  -24.2410 C.3   439  GLU439      0.1163
    113  CD       -20.8350    7.7840  -24.9120 C.2   439  GLU439      0.3649
    114  OE1      -21.3590    8.4080  -25.8620 O.co2 439  GLU439     -0.2457
    115  OE2      -19.6660    7.9890  -24.5130 O.co2 439  GLU439     -0.2457
    116  N        -27.3570    1.7570  -24.0370 N.3   553  ASN553     -0.1240
    117  CA       -27.4230    2.7030  -22.9310 C.3   553  ASN553      0.1653
    118  C        -28.8240    2.6910  -22.3160 C.2   553  ASN553      0.2266
    119  O        -29.6010    3.6380  -22.4690 O.2   553  ASN553     -0.2867
    120  CB       -27.0290    4.0950  -23.4350 C.3   553  ASN553      0.1155
    121  CG       -26.8590    5.0930  -22.3220 C.2   553  ASN553      0.2627
    122  OD1      -27.8080    5.7810  -21.9450 O.2   553  ASN553     -0.2716
    123  ND2      -25.6440    5.1930  -21.7930 N.am  553  ASN553     -0.0877
    124  N        -30.4300   13.9850  -28.8160 N.3   603  ILE603     -0.1231
    125  CA       -29.8480   15.1280  -29.5370 C.3   603  ILE603      0.1692
    126  C        -28.8340   15.9120  -28.6980 C.2   603  ILE603      0.2592
    127  O        -28.0750   16.7140  -29.2420 O.2   603  ILE603     -0.2718
    128  CB       -30.9270   16.1010  -30.0980 C.3   603  ILE603      0.0266
    129  CG1      -31.7870   16.7050  -28.9810 C.3   603  ILE603      0.0019
    130  CG2      -31.8000   15.3900  -31.1190 C.3   603  ILE603      0.0020
    131  CD1      -32.6940   17.8220  -29.4620 C.3   603  ILE603      0.0001
    132  N        -28.8320   15.6810  -27.3840 N.am  604  ARG604     -0.1966
    133  CA       -27.8210   16.2430  -26.4810 C.3   604  ARG604      0.1729
    134  C        -26.8040   15.1780  -26.0220 C.2   604  ARG604      0.2616
    135  O        -26.2130   15.2840  -24.9430 O.2   604  ARG604     -0.2715
    136  CB       -28.5170   16.9310  -25.2990 C.3   604  ARG604      0.0348
    137  CG       -29.3130   18.1700  -25.7370 C.3   604  ARG604      0.0492
    138  CD       -30.5760   18.4200  -24.9210 C.3   604  ARG604      0.2205
    139  NE       -30.3420   19.3080  -23.7810 N.pl3 604  ARG604     -0.0865
    140  CZ       -31.2840   20.0260  -23.1660 C.cat 604  ARG604      0.5346
    141  NH1      -32.5540   19.9830  -23.5670 N.pl3 604  ARG604      0.1354
    142  NH2      -30.9520   20.8010  -22.1370 N.pl3 604  ARG604      0.1354
    143  N        -26.6140   14.1610  -26.8660 N.am  605  HIS605     -0.1959
    144  CA       -25.5240   13.1770  -26.7450 C.3   605  HIS605      0.1787
    145  C        -25.6180   12.2490  -25.5250 C.2   605  HIS605      0.2620
    146  O        -24.6060   11.9160  -24.9080 O.2   605  HIS605     -0.2715
    147  CB       -24.1560   13.8770  -26.8010 C.3   605  HIS605      0.0785
    148  CG       -24.0250   14.8530  -27.9310 C.ar  605  HIS605      0.0821
    149  ND1      -24.2580   14.5050  -29.2440 N.ar  605  HIS605     -0.2267
    150  CD2      -23.6940   16.1660  -27.9440 C.ar  605  HIS605      0.1154
    151  CE1      -24.0750   15.5610  -30.0170 C.ar  605  HIS605      0.1986
    152  NE2      -23.7320   16.5810  -29.2530 N.ar  605  HIS605     -0.2212
    153  N        -26.8340   11.8170  -25.2010 N.am  606  GLY606     -0.1954
    154  CA       -27.0620   10.8400  -24.1280 C.3   606  GLY606      0.1869
    155  C        -28.4160   10.1700  -24.2730 C.2   606  GLY606      0.2309
    156  O        -29.2250   10.5860  -25.0940 O.2   606  GLY606     -0.2863
    157  N        -28.1160    7.4570  -19.2460 N.3   610  CYS610     -0.1235
    158  CA       -27.4970    8.7510  -18.9280 C.3   610  CYS610      0.1677
    159  C        -28.4270    9.6770  -18.1410 C.2   610  CYS610      0.2270
    160  O        -27.9780   10.4090  -17.2600 O.2   610  CYS610     -0.2867
    161  CB       -27.0690    9.4730  -20.2070 C.3   610  CYS610      0.0956
    162  SG       -26.0760    8.4880  -21.3350 S.3   610  CYS610     -0.0801
@<TRIPOS>BOND
     1   130   128    1
     2   128   125    1
     3   128   129    1
     4   151   152   ar
     5   151   149   ar
     6   125   124    1
     7   125   126    1
     8   131   129    1
     9   152   150   ar
    10   149   148   ar
    11   127   126    2
    12   126   132   am
    13   150   148   ar
    14   148   147    1
    15   132   133    1
    16   143   144    1
    17   143   134   am
    18   147   144    1
    19   144   145    1
    20   133   134    1
    21   133   136    1
    22   110   109    2
    23   134   135    2
    24   114   113   ar
    25    82    83    1
    26   137   136    1
    27   137   138    1
    28   145   153   am
    29   145   146    2
    30   153   154    1
    31   156   155    2
    32   109   108    1
    33   138   139    1
    34   113   115   ar
    35   113   112    1
    36    88    86    1
    37   111   112    1
    38   111   108    1
    39    83    86    1
    40    83    84    1
    41   155   154    1
    42   108   107    1
    43    86    87    1
    44   116   117    1
    45   139   140    2
    46   141   140    1
    47    84    85    2
    48   120   117    1
    49   120   121    1
    50   140   142    1
    51   117   118    1
    52   107   101   am
    53    92    91    2
    54   119   118    2
    55   121   122    2
    56   121   123   am
    57    39    37   ar
    58    39    38   ar
    59   102   101    2
    60    89    90    1
    61    37    35   ar
    62   101   100    1
    63    91    90    1
    64    38    36   ar
    65    25    23   am
    66   162   161    1
    67    24    23    2
    68    90    93    1
    69    23    22    1
    70    35    34   ar
    71    35    33   ar
    72    93    94    1
    73   100    99    1
    74   100   103    1
    75   106   104   ar
    76    34    32   ar
    77   161   158    1
    78    94    96   ar
    79    94    95   ar
    80    36    33   ar
    81    96    98   ar
    82    33    31   ar
    83   104   103    1
    84   104   105   ar
    85    95    97   ar
    86    22    21    1
    87    98    97   ar
    88   157   158    1
    89    69    68    1
    90    69    70    1
    91    67    65    1
    92   158   159    1
    93    32    31   ar
    94    66    65    1
    95    31    30    1
    96    70    71    2
    97    21    18    1
    98    65    64    2
    99   159   160    2
   100     7     6   ar
   101     4     3    2
   102    56    54   ar
   103    81    80    2
   104     5     6    1
   105     5     2    1
   106     6     8   ar
   107    30    27    1
   108    64    63    1
   109    80    79    1
   110    18    17    1
   111    18    19    1
   112    55    54   ar
   113    17    11   am
   114    54    53    1
   115    19    20    2
   116    19    26   am
   117     3     2    1
   118     3     9   am
   119    79    78    1
   120    27    26    1
   121    27    28    1
   122    77    76    1
   123     2     1    1
   124    63    62    1
   125    76    73    1
   126    15    14   ar
   127    45    44    1
   128    45    46    1
   129    10    11    1
   130    10     9    1
   131    10    13    1
   132    11    12    2
   133    44    41    1
   134    62    61    1
   135    75    74    2
   136    53    50    1
   137    28    29    2
   138    72    73    1
   139    73    74    1
   140    46    47    2
   141    46    48   am
   142    14    13    1
   143    14    16   ar
   144    61    58    1
   145    50    49    1
   146    50    51    1
   147    40    41    1
   148    41    42    1
   149    49    42   am
   150    42    43    2
   151    58    59    1
   152    58    57    1
   153    51    52    2
   154    59    60    2
