@<TRIPOS>MOLECULE
tmp/3b1xB00.pdb
 159 157 0 0 0
SMALL
GASTEIGER

@<TRIPOS>ATOM
      1  N        -26.2700   12.9670  -49.8760 N.3    10  PRO10      -0.2102
      2  CA       -27.3880   12.9210  -48.9270 C.3    10  PRO10       0.1504
      3  C        -27.3290   14.1120  -47.9670 C.2    10  PRO10       0.2576
      4  O        -26.2350   14.6250  -47.7020 O.2    10  PRO10      -0.2718
      5  CB       -27.1510   11.6130  -48.1670 C.3    10  PRO10       0.0282
      6  CG       -26.3610   10.7620  -49.1060 C.3    10  PRO10       0.0208
      7  CD       -25.4790   11.7190  -49.8520 C.3    10  PRO10       0.0893
      8  N        -28.4930   14.5440  -47.4740 N.am   11  ASN11      -0.1961
      9  CA       -28.6290   15.6580  -46.5140 C.3    11  ASN11       0.1819
     10  C        -28.2050   17.0260  -47.0940 C.2    11  ASN11       0.2622
     11  O        -27.7700   17.9140  -46.3570 O.2    11  ASN11      -0.2715
     12  CB       -27.8890   15.3120  -45.1990 C.3    11  ASN11       0.1195
     13  CG       -28.2270   16.2470  -44.0380 C.2    11  ASN11       0.2630
     14  OD1      -29.3030   16.8550  -43.9820 O.2    11  ASN11      -0.2716
     15  ND2      -27.2940   16.3570  -43.0960 N.am   11  ASN11      -0.0877
     16  N        -28.3420   17.1960  -48.4120 N.am   12  SER12      -0.1936
     17  CA       -27.9670   18.4520  -49.0880 C.3    12  SER12       0.2055
     18  C        -29.1650   19.3300  -49.4900 C.2    12  SER12       0.2644
     19  O        -28.9930   20.4970  -49.8520 O.2    12  SER12      -0.2714
     20  CB       -27.0510   18.1870  -50.2950 C.3    12  SER12       0.2130
     21  OG       -27.6940   17.4240  -51.2960 O.3    12  SER12      -0.2179
     22  N        -30.3660   18.7620  -49.4220 N.am   13  GLY13      -0.1939
     23  CA       -31.5970   19.5090  -49.6630 C.3    13  GLY13       0.2014
     24  C        -32.3120   19.2880  -50.9790 C.2    13  GLY13       0.2639
     25  O        -33.0350   20.1830  -51.4290 O.2    13  GLY13      -0.2714
     26  N        -32.1270   18.1130  -51.5870 N.am   14  LYS14      -0.1963
     27  CA       -32.7370   17.7910  -52.8930 C.3    14  LYS14       0.1728
     28  C        -34.2660   17.7330  -52.8340 C.2    14  LYS14       0.2617
     29  O        -34.9420   18.3590  -53.6530 O.2    14  LYS14      -0.2715
     30  CB       -32.2080   16.4700  -53.4570 C.3    14  LYS14       0.0311
     31  CG       -30.7350   16.4340  -53.8160 C.3    14  LYS14       0.0038
     32  CD       -30.3130   15.0410  -54.2850 C.3    14  LYS14       0.0206
     33  CE       -30.3710   13.9780  -53.1770 C.3    14  LYS14       0.1093
     34  NZ       -29.4720   14.2670  -52.0150 N.3    14  LYS14      -0.1314
     35  N        -34.7850   16.9810  -51.8590 N.am   15  THR15      -0.1937
     36  CA       -36.2210   16.7730  -51.6670 C.3    15  THR15       0.2028
     37  C        -36.9050   18.0700  -51.2620 C.2    15  THR15       0.2642
     38  O        -38.0410   18.3270  -51.6740 O.2    15  THR15      -0.2714
     39  CB       -36.5060   15.6800  -50.6120 C.3    15  THR15       0.1808
     40  OG1      -35.6490   14.5520  -50.8360 O.3    15  THR15      -0.2208
     41  CG2      -37.9570   15.2210  -50.6680 C.3    15  THR15       0.0379
     42  N        -36.2040   18.8760  -50.4640 N.am   16  SER16      -0.1949
     43  CA       -36.6930   20.1820  -50.0260 C.3    16  SER16       0.1924
     44  C        -36.9510   21.0970  -51.2220 C.2    16  SER16       0.2314
     45  O        -37.9550   21.8100  -51.2540 O.2    16  SER16      -0.2863
     46  CB       -35.7040   20.8290  -49.0620 C.3    16  SER16       0.2116
     47  OG       -35.4640   19.9890  -47.9510 O.3    16  SER16      -0.2180
     48  N        -38.7610   14.7790  -45.9320 N.3    28  VAL28      -0.1231
     49  CA       -37.6020   15.6510  -45.7090 C.3    28  VAL28       0.1692
     50  C        -37.1390   15.4830  -44.2570 C.2    28  VAL28       0.2593
     51  O        -37.9500   15.6010  -43.3330 O.2    28  VAL28      -0.2718
     52  CB       -37.9310   17.1470  -46.0450 C.3    28  VAL28       0.0266
     53  CG1      -36.8660   18.0940  -45.5370 C.3    28  VAL28       0.0020
     54  CG2      -38.1050   17.3540  -47.5410 C.3    28  VAL28       0.0020
     55  N        -35.8450   15.2090  -44.0690 N.am   29  GLY29      -0.1942
     56  CA       -35.2540   15.0170  -42.7390 C.3    29  GLY29       0.2014
     57  C        -33.8350   15.5370  -42.6070 C.2    29  GLY29       0.2639
     58  O        -33.1090   15.5860  -43.5930 O.2    29  GLY29      -0.2714
     59  N        -33.4370   15.9140  -41.3910 N.am   30  ASN30      -0.1958
     60  CA       -32.0980   16.4770  -41.1280 C.3    30  ASN30       0.1819
     61  C        -30.9860   15.4480  -40.8090 C.2    30  ASN30       0.2621
     62  O        -30.2020   15.6130  -39.8610 O.2    30  ASN30      -0.2715
     63  CB       -32.1760   17.5830  -40.0570 C.3    30  ASN30       0.1195
     64  CG       -32.6540   17.0750  -38.7070 C.2    30  ASN30       0.2630
     65  OD1      -33.5330   16.2190  -38.6220 O.2    30  ASN30      -0.2716
     66  ND2      -32.0710   17.6090  -37.6410 N.am   30  ASN30      -0.0877
     67  N        -30.9330   14.3920  -41.6220 N.am   31  TRP31      -0.1960
     68  CA       -29.9070   13.3420  -41.5340 C.3    31  TRP31       0.1756
     69  C        -29.7120   12.6930  -42.9090 C.2    31  TRP31       0.2462
     70  O        -30.6560   12.6630  -43.7030 O.2    31  TRP31      -0.2730
     71  CB       -30.2570   12.2850  -40.4730 C.3    31  TRP31       0.0590
     72  CG       -31.4540   11.4370  -40.7990 C.ar   31  TRP31       0.0006
     73  CD1      -31.4510   10.2150  -41.4170 C.ar   31  TRP31       0.0946
     74  CD2      -32.8280   11.7430  -40.5250 C.ar   31  TRP31       0.0152
     75  NE1      -32.7360    9.7430  -41.5470 N.ar   31  TRP31      -0.2442
     76  CE2      -33.6020   10.6570  -41.0080 C.ar   31  TRP31       0.0810
     77  CE3      -33.4840   12.8300  -39.9210 C.ar   31  TRP31       0.0012
     78  CZ2      -35.0010   10.6220  -40.9060 C.ar   31  TRP31       0.0191
     79  CZ3      -34.8860   12.7970  -39.8160 C.ar   31  TRP31       0.0001
     80  CH2      -35.6240   11.6980  -40.3080 C.ar   31  TRP31       0.0015
     81  N        -28.4970   12.1780  -43.2020 N.am   32  PRO32      -0.2716
     82  CA       -28.2880   11.5210  -44.4950 C.3    32  PRO32       0.1536
     83  C        -29.1230   10.2480  -44.6910 C.2    32  PRO32       0.2599
     84  O        -29.3000    9.4760  -43.7440 O.2    32  PRO32      -0.2715
     85  CB       -26.7930   11.1740  -44.4750 C.3    32  PRO32       0.0310
     86  CG       -26.4050   11.1880  -43.0480 C.3    32  PRO32       0.0237
     87  CD       -27.2420   12.2470  -42.4260 C.3    32  PRO32       0.0939
     88  N        -29.6260   10.0550  -45.9140 N.am   33  GLY33      -0.1941
     89  CA       -30.3390    8.8310  -46.3120 C.3    33  GLY33       0.2014
     90  C        -31.8440    8.7770  -46.1170 C.2    33  GLY33       0.2639
     91  O        -32.3840    7.7090  -45.8200 O.2    33  GLY33      -0.2714
     92  N        -32.5180    9.9130  -46.2930 N.am   34  VAL34      -0.1963
     93  CA       -33.9780    9.9910  -46.1450 C.3    34  VAL34       0.1727
     94  C        -34.6920    9.3730  -47.3600 C.2    34  VAL34       0.2616
     95  O        -35.4470    8.4160  -47.1920 O.2    34  VAL34      -0.2715
     96  CB       -34.4760   11.4450  -45.8310 C.3    34  VAL34       0.0290
     97  CG1      -36.0010   11.5320  -45.8250 C.3    34  VAL34       0.0023
     98  CG2      -33.9360   11.9260  -44.4940 C.3    34  VAL34       0.0023
     99  N        -34.4530    9.9160  -48.5580 N.am   35  THR35      -0.1951
    100  CA       -35.0360    9.3980  -49.8020 C.3    35  THR35       0.1897
    101  C        -34.3350    8.1000  -50.1750 C.2    35  THR35       0.2313
    102  O        -33.1080    8.0530  -50.2490 O.2    35  THR35      -0.2863
    103  CB       -34.9260   10.4110  -50.9780 C.3    35  THR35       0.1794
    104  OG1      -35.4100   11.7010  -50.5620 O.3    35  THR35      -0.2208
    105  CG2      -35.7010    9.9510  -52.2140 C.3    35  THR35       0.0378
    106  N        -29.6980   10.4030  -52.2830 N.3    56  GLY56      -0.1225
    107  CA       -28.3780   11.0190  -52.2310 C.3    56  GLY56       0.1811
    108  C        -27.2650   10.0630  -52.6000 C.2    56  GLY56       0.2280
    109  O        -27.3720    8.8480  -52.3900 O.2    56  GLY56      -0.2866
    110  N        -27.0250   25.0970  -52.8280 N.3   113  ASN113     -0.1225
    111  CA       -28.0370   25.0910  -51.7770 C.3   113  ASN113      0.1785
    112  C        -27.4660   25.4030  -50.3960 C.2   113  ASN113      0.2597
    113  O        -26.2530   25.3590  -50.2000 O.2   113  ASN113     -0.2718
    114  CB       -28.7990   23.7510  -51.7880 C.3   113  ASN113      0.1169
    115  CG       -30.1730   23.8460  -51.1330 C.2   113  ASN113      0.2627
    116  OD1      -30.8390   24.8850  -51.1890 O.2   113  ASN113     -0.2716
    117  ND2      -30.6040   22.7530  -50.5080 N.am  113  ASN113     -0.0877
    118  N        -28.3620   25.7260  -49.4610 N.am  114  MET114     -0.1979
    119  CA       -28.0550   26.0420  -48.0580 C.3   114  MET114      0.1605
    120  C        -27.1740   27.2780  -47.9110 C.2   114  MET114      0.2287
    121  O        -26.3480   27.3700  -46.9920 O.2   114  MET114     -0.2864
    122  CB       -27.4540   24.8260  -47.3330 C.3   114  MET114      0.0413
    123  CG       -28.3960   23.6510  -47.2500 C.3   114  MET114      0.0598
    124  SD       -27.6960   22.3080  -46.3050 S.3   114  MET114     -0.1393
    125  CE       -29.0210   21.1190  -46.4170 C.3   114  MET114      0.0692
    126  N        -28.1420   30.1710  -47.0720 N.3   116  ASP116     -0.1225
    127  CA       -28.6180   30.9030  -45.8960 C.3   116  ASP116      0.1805
    128  C        -27.7930   30.5830  -44.6460 C.2   116  ASP116      0.2597
    129  O        -27.5850   31.4640  -43.8070 O.2   116  ASP116     -0.2718
    130  CB       -30.0960   30.6000  -45.6370 C.3   116  ASP116      0.1424
    131  CG       -30.3520   29.1260  -45.3620 C.2   116  ASP116      0.3668
    132  OD1      -30.0560   28.2910  -46.2430 O.co2 116  ASP116     -0.2456
    133  OD2      -30.8500   28.8090  -44.2620 O.co2 116  ASP116     -0.2456
    134  N        -27.3400   29.3280  -44.5410 N.am  117  VAL117     -0.1980
    135  CA       -26.4940   28.8500  -43.4400 C.3   117  VAL117      0.1595
    136  C        -25.0910   29.4420  -43.5970 C.2   117  VAL117      0.2287
    137  O        -24.4860   29.8690  -42.6090 O.2   117  VAL117     -0.2864
    138  CB       -26.4260   27.2910  -43.3470 C.3   117  VAL117      0.0276
    139  CG1      -25.7610   26.8420  -42.0480 C.3   117  VAL117      0.0022
    140  CG2      -27.8090   26.6680  -43.4390 C.3   117  VAL117      0.0022
    141  N        -31.6940   28.5210  -51.5070 N.3   142  SER142     -0.1202
    142  CA       -32.0680   28.1600  -50.1460 C.3   142  SER142      0.2020
    143  C        -33.5050   27.6640  -50.1480 C.2   142  SER142      0.2619
    144  O        -34.4070   28.3720  -50.5940 O.2   142  SER142     -0.2717
    145  CB       -31.9040   29.3320  -49.1760 C.3   142  SER142      0.2103
    146  OG       -32.2880   28.9520  -47.8660 O.3   142  SER142     -0.2182
    147  N        -33.7060   26.4460  -49.6550 N.am  143  ALA143     -0.1965
    148  CA       -35.0390   25.8620  -49.5490 C.3   143  ALA143      0.1728
    149  C        -35.8270   26.4450  -48.3720 C.2   143  ALA143      0.2616
    150  O        -37.0560   26.5280  -48.4390 O.2   143  ALA143     -0.2715
    151  CB       -34.9430   24.3640  -49.4280 C.3   143  ALA143      0.0334
    152  N        -35.1130   26.8390  -47.3140 N.am  144  LEU144     -0.1977
    153  CA       -35.6960   27.4490  -46.1120 C.3   144  LEU144      0.1596
    154  C        -36.2000   28.8730  -46.3690 C.2   144  LEU144      0.2287
    155  O        -37.2900   29.2340  -45.9120 O.2   144  LEU144     -0.2864
    156  CB       -34.6810   27.4270  -44.9520 C.3   144  LEU144      0.0297
    157  CG       -34.9830   28.0710  -43.5820 C.3   144  LEU144      0.0022
    158  CD1      -36.0410   27.3150  -42.7960 C.3   144  LEU144      0.0001
    159  CD2      -33.7200   28.1920  -42.7350 C.3   144  LEU144      0.0001
@<TRIPOS>BOND
     1    32    31    1
     2    32    33    1
     3    31    30    1
     4    29    28    2
     5    30    27    1
     6    33    34    1
     7    27    28    1
     8    27    26    1
     9    28    35   am
    10   110   111    1
    11   108   109    2
    12   108   107    1
    13   106   107    1
    14   105   103    1
    15    35    36    1
    16   114   111    1
    17   114   115    1
    18   111   112    1
    19    38    37    2
    20    36    37    1
    21    36    39    1
    22    26    24   am
    23   141   142    1
    24    25    24    2
    25    21    20    1
    26    37    42   am
    27    45    44    2
    28    44    43    1
    29   116   115    2
    30   115   117   am
    31    24    23    1
    32   103   104    1
    33   103   100    1
    34    40    39    1
    35    41    39    1
    36   144   143    2
    37    42    43    1
    38   112   113    2
    39   112   118   am
    40    20    17    1
    41   102   101    2
    42   101   100    1
    43   143   142    1
    44   143   147   am
    45   142   145    1
    46    43    46    1
    47     1     7    1
    48     1     2    1
    49    19    18    2
    50     7     6    1
    51   100    99    1
    52    23    22    1
    53   147   148    1
    54   148   151    1
    55   148   149    1
    56    18    22   am
    57    18    17    1
    58   118   119    1
    59   145   146    1
    60     6     5    1
    61    17    16    1
    62    46    47    1
    63     2     5    1
    64     2     3    1
    65    99    94   am
    66   150   149    2
    67    16    10   am
    68   149   152   am
    69   119   120    1
    70   119   122    1
    71     3     4    2
    72     3     8   am
    73   120   121    2
    74    54    52    1
    75     8     9    1
    76    94    95    2
    77    94    93    1
    78   122   123    1
    79   152   153    1
    80   123   124    1
    81    10     9    1
    82    10    11    2
    83   126   127    1
    84     9    12    1
    85   125   124    1
    86   154   153    1
    87   154   155    2
    88    89    90    1
    89    89    88    1
    90    92    93    1
    91    92    90   am
    92   132   131   ar
    93    93    96    1
    94    90    91    2
    95   153   156    1
    96    52    49    1
    97    52    53    1
    98    48    49    1
    99    88    83   am
   100   127   130    1
   101   127   128    1
   102    96    97    1
   103    96    98    1
   104    49    50    1
   105   130   131    1
   106   131   133   ar
   107    12    13    1
   108   156   157    1
   109    83    82    1
   110    83    84    2
   111   128   134   am
   112   128   129    2
   113   134   135    1
   114    82    85    1
   115    82    81    1
   116    85    86    1
   117    50    55   am
   118    50    51    2
   119    55    56    1
   120    13    14    2
   121    13    15   am
   122    70    69    2
   123   136   135    1
   124   136   137    2
   125    58    57    2
   126   157   158    1
   127   157   159    1
   128   135   138    1
   129   140   138    1
   130   138   139    1
   131    81    69   am
   132    81    87    1
   133    86    87    1
   134    69    68    1
   135    56    57    1
   136    57    59   am
   137    67    68    1
   138    67    61   am
   139    75    73   ar
   140    75    76   ar
   141    68    71    1
   142    73    72   ar
   143    59    60    1
   144    60    61    1
   145    60    63    1
   146    76    78   ar
   147    76    74   ar
   148    78    80   ar
   149    61    62    2
   150    72    74   ar
   151    72    71    1
   152    74    77   ar
   153    80    79   ar
   154    63    64    1
   155    77    79   ar
   156    64    65    2
   157    64    66   am
