@<TRIPOS>MOLECULE
tmp/3b25A00.pdb
 129 121 0 0 0
SMALL
GASTEIGER

@<TRIPOS>ATOM
      1  N         67.6670   11.6340   33.1350 N.3    33  LEU33      -0.1245
      2  CA        68.2320   12.1320   31.8840 C.3    33  LEU33       0.1561
      3  C         69.5150   11.4130   31.4980 C.2    33  LEU33       0.2260
      4  O         69.7200   11.1320   30.3150 O.2    33  LEU33      -0.2867
      5  CB        68.4450   13.6720   31.9390 C.3    33  LEU33       0.0270
      6  CG        67.1580   14.4700   32.1950 C.3    33  LEU33       0.0019
      7  CD1       67.4840   15.9620   32.3610 C.3    33  LEU33       0.0001
      8  CD2       66.1130   14.2440   31.0770 C.3    33  LEU33       0.0001
      9  N         68.4740    8.1930   30.0090 N.3    36  ASN36      -0.1225
     10  CA        68.0130    8.3630   28.6410 C.3    36  ASN36       0.1785
     11  C         69.2070    8.4810   27.6860 C.2    36  ASN36       0.2597
     12  O         69.1820    7.8970   26.6020 O.2    36  ASN36      -0.2718
     13  CB        67.1110    9.6060   28.5310 C.3    36  ASN36       0.1169
     14  CG        65.7670    9.4570   29.2090 C.2    36  ASN36       0.2627
     15  OD1       65.3540    8.3670   29.6350 O.2    36  ASN36      -0.2716
     16  ND2       65.0440   10.5580   29.3300 N.am   36  ASN36      -0.0877
     17  N         70.2460    9.2200   28.1060 N.am   37  SER37      -0.1952
     18  CA        71.4690    9.4130   27.3220 C.3    37  SER37       0.1924
     19  C         72.1670    8.0510   27.1050 C.2    37  SER37       0.2314
     20  O         72.5420    7.7290   25.9800 O.2    37  SER37      -0.2863
     21  CB        72.3920   10.3850   28.0410 C.3    37  SER37       0.2116
     22  OG        71.8530   11.6890   27.8500 O.3    37  SER37      -0.2180
     23  N         70.3420    5.9840   24.5460 N.3    40  ALA40      -0.1245
     24  CA        70.5810    6.5040   23.1950 C.3    40  ALA40       0.1562
     25  C         71.9760    6.1260   22.7170 C.2    40  ALA40       0.2260
     26  O         72.1890    5.9350   21.5220 O.2    40  ALA40      -0.2867
     27  CB        70.4200    8.0310   23.1890 C.3    40  ALA40       0.0290
     28  N         74.6620   14.2860   25.0460 N.3    78  ASP78      -0.1239
     29  CA        75.1610   12.9530   24.7170 C.3    78  ASP78       0.1674
     30  C         75.4660   12.8840   23.2280 C.2    78  ASP78       0.2266
     31  O         74.9390   13.6750   22.4320 O.2    78  ASP78      -0.2867
     32  CB        74.1780   11.8530   25.1630 C.3    78  ASP78       0.1410
     33  CG        72.8600   11.8740   24.4290 C.2    78  ASP78       0.3668
     34  OD1       72.8580   11.5980   23.2010 O.co2  78  ASP78      -0.2456
     35  OD2       71.8260   12.0940   25.0840 O.co2  78  ASP78      -0.2456
     36  N         72.1680    8.1750   19.6550 N.3    81  ILE81      -0.1231
     37  CA        71.5220    8.0620   18.3420 C.3    81  ILE81       0.1692
     38  C         70.8460    9.3680   17.8300 C.2    81  ILE81       0.2593
     39  O         70.7230    9.5810   16.6200 O.2    81  ILE81      -0.2718
     40  CB        70.5520    6.8500   18.3240 C.3    81  ILE81       0.0266
     41  CG1       70.1280    6.5220   16.8780 C.3    81  ILE81       0.0019
     42  CG2       69.3380    7.0510   19.2490 C.3    81  ILE81       0.0020
     43  CD1       70.2310    5.0900   16.5470 C.3    81  ILE81       0.0001
     44  N         70.3680   10.1970   18.7590 N.am   82  GLY82      -0.1942
     45  CA        69.6540   11.4080   18.3940 C.3    82  GLY82       0.2014
     46  C         68.2280   11.0850   18.0030 C.2    82  GLY82       0.2638
     47  O         67.8060    9.9220   18.0180 O.2    82  GLY82      -0.2714
     48  N         67.4800   12.1210   17.6470 N.am   83  MET83      -0.1976
     49  CA        66.0820   12.0020   17.2800 C.3    83  MET83       0.1605
     50  C         65.7870   12.6790   15.9590 C.2    83  MET83       0.2287
     51  O         66.2540   13.7920   15.7020 O.2    83  MET83      -0.2864
     52  CB        65.1840   12.6120   18.3650 C.3    83  MET83       0.0413
     53  CG        65.1170   11.7740   19.6250 C.3    83  MET83       0.0598
     54  SD        64.1360   12.5480   20.9080 S.3    83  MET83      -0.1393
     55  CE        65.3630   13.7140   21.5880 C.3    83  MET83       0.0692
     56  N         60.7600   13.4280   17.6680 N.3    88  LEU88      -0.1245
     57  CA        60.4680   14.5950   18.5080 C.3    88  LEU88       0.1561
     58  C         59.0090   14.9400   18.6240 C.2    88  LEU88       0.2260
     59  O         58.5350   15.2190   19.7250 O.2    88  LEU88      -0.2867
     60  CB        61.1770   15.8230   17.9410 C.3    88  LEU88       0.0270
     61  CG        62.5670   16.1160   18.3590 C.3    88  LEU88       0.0019
     62  CD1       62.9980   17.4460   17.7730 C.3    88  LEU88       0.0001
     63  CD2       62.7170   16.1660   19.9000 C.3    88  LEU88       0.0001
     64  N         57.7730    9.4060   19.8720 N.3    92  LEU92      -0.1245
     65  CA        58.1350    9.2710   21.2710 C.3    92  LEU92       0.1561
     66  C         57.0220    9.5900   22.2790 C.2    92  LEU92       0.2260
     67  O         56.9570    8.9480   23.3280 O.2    92  LEU92      -0.2867
     68  CB        59.5210    9.8590   21.5920 C.3    92  LEU92       0.0270
     69  CG        60.6930    9.2420   20.7790 C.3    92  LEU92       0.0019
     70  CD1       62.0210    9.8210   21.1950 C.3    92  LEU92       0.0001
     71  CD2       60.7680    7.7180   20.9470 C.3    92  LEU92       0.0001
     72  N         62.0540   11.3950   30.8980 N.3   123  PHE123     -0.1227
     73  CA        62.3950   12.7500   30.4020 C.3   123  PHE123      0.1736
     74  C         61.5850   13.8270   31.0980 C.2   123  PHE123      0.2595
     75  O         62.1240   14.8790   31.4190 O.2   123  PHE123     -0.2718
     76  CB        62.1800   12.8570   28.8640 C.3   123  PHE123      0.0547
     77  CG        62.2230   14.2900   28.3680 C.ar  123  PHE123     -0.0202
     78  CD1       63.4210   14.9970   28.3320 C.ar  123  PHE123     -0.0042
     79  CD2       61.0480   14.9560   28.0020 C.ar  123  PHE123     -0.0042
     80  CE1       63.4490   16.3470   27.9280 C.ar  123  PHE123     -0.0003
     81  CE2       61.0760   16.3090   27.6200 C.ar  123  PHE123     -0.0003
     82  CZ        62.2750   16.9890   27.5840 C.ar  123  PHE123     -0.0000
     83  N         60.2680   13.5900   31.3070 N.am  124  TYR124     -0.1976
     84  CA        59.4080   14.6180   31.9160 C.3   124  TYR124      0.1639
     85  C         59.7540   15.0160   33.3390 C.2   124  TYR124      0.2290
     86  O         59.3440   16.0950   33.7740 O.2   124  TYR124     -0.2864
     87  CB        57.9220   14.2810   31.7520 C.3   124  TYR124      0.0560
     88  CG        57.5920   14.0530   30.3000 C.ar  124  TYR124     -0.0198
     89  CD1       57.3980   15.1230   29.4360 C.ar  124  TYR124     -0.0009
     90  CD2       57.5480   12.7660   29.7720 C.ar  124  TYR124     -0.0009
     91  CE1       57.1480   14.9150   28.0730 C.ar  124  TYR124      0.0417
     92  CE2       57.2910   12.5490   28.4230 C.ar  124  TYR124      0.0417
     93  CZ        57.0960   13.6240   27.5780 C.ar  124  TYR124      0.1957
     94  OH        56.8170   13.3810   26.2560 O.3   124  TYR124     -0.2866
     95  N         65.5250   21.1630   23.8500 N.3   135  VAL135     -0.1245
     96  CA        66.1740   19.9170   23.4420 C.3   135  VAL135      0.1561
     97  C         66.6980   20.1030   22.0290 C.2   135  VAL135      0.2260
     98  O         65.9020   20.2920   21.1050 O.2   135  VAL135     -0.2867
     99  CB        65.2060   18.7030   23.5450 C.3   135  VAL135      0.0252
    100  CG1       65.8840   17.4280   23.0090 C.3   135  VAL135      0.0019
    101  CG2       64.7240   18.5090   24.9940 C.3   135  VAL135      0.0019
    102  N         63.6450   21.5000   19.9970 N.3   147  TRP147     -0.1241
    103  CA        62.3370   21.2960   20.6200 C.3   147  TRP147      0.1605
    104  C         62.3590   22.1570   21.8600 C.2   147  TRP147      0.2264
    105  O         63.4100   22.3160   22.5080 O.2   147  TRP147     -0.2867
    106  CB        62.1910   19.8020   21.0070 C.3   147  TRP147      0.0550
    107  CG        60.9540   19.4010   21.7610 C.ar  147  TRP147      0.0003
    108  CD1       59.9070   18.6750   21.2720 C.ar  147  TRP147      0.0946
    109  CD2       60.7250   19.5300   23.1800 C.ar  147  TRP147      0.0152
    110  NE1       59.0110   18.3930   22.2820 N.ar  147  TRP147     -0.2442
    111  CE2       59.4900   18.9020   23.4640 C.ar  147  TRP147      0.0810
    112  CE3       61.4620   20.0990   24.2490 C.ar  147  TRP147      0.0012
    113  CZ2       58.9980   18.7750   24.7700 C.ar  147  TRP147      0.0191
    114  CZ3       60.9180   20.0550   25.5330 C.ar  147  TRP147      0.0001
    115  CH2       59.7190   19.3700   25.7870 C.ar  147  TRP147      0.0015
    116  N         71.9720   14.2800   21.3990 N.3   169  THR169     -0.1218
    117  CA        70.9260   15.0890   22.0150 C.3   169  THR169      0.1862
    118  C         71.4980   15.9330   23.1190 C.2   169  THR169      0.2287
    119  O         72.3200   15.4650   23.9090 O.2   169  THR169     -0.2866
    120  CB        69.8130   14.1690   22.5350 C.3   169  THR169      0.1770
    121  OG1       69.2750   13.4150   21.4390 O.3   169  THR169     -0.2211
    122  CG2       68.6710   14.9370   23.2370 C.3   169  THR169      0.0375
    123  N         69.9620   18.2800   26.1940 N.3   171  VAL171     -0.1245
    124  CA        68.8250   18.7010   27.0100 C.3   171  VAL171      0.1561
    125  C         69.2620   19.8860   27.8380 C.2   171  VAL171      0.2260
    126  O         70.0940   19.7430   28.7410 O.2   171  VAL171     -0.2867
    127  CB        68.2790   17.5530   27.8930 C.3   171  VAL171      0.0252
    128  CG1       67.1450   18.0380   28.7920 C.3   171  VAL171      0.0019
    129  CG2       67.8470   16.3550   27.0460 C.3   171  VAL171      0.0019
@<TRIPOS>BOND
     1    51    50    2
     2    50    49    1
     3    43    41    1
     4    39    38    2
     5    41    40    1
     6    49    48    1
     7    49    52    1
     8    48    46   am
     9    56    57    1
    10    62    61    1
    11    38    37    1
    12    38    44   am
    13    60    61    1
    14    60    57    1
    15    46    47    2
    16    46    45    1
    17    40    37    1
    18    40    42    1
    19    37    36    1
    20    61    63    1
    21    52    53    1
    22    45    44    1
    23    57    58    1
    24    58    59    2
    25    53    54    1
    26    64    65    1
    27   102   103    1
    28   103   106    1
    29   103   104    1
    30    69    71    1
    31    69    70    1
    32    69    68    1
    33    54    55    1
    34   106   107    1
    35    98    97    2
    36    65    68    1
    37    65    66    1
    38   108   107   ar
    39   108   110   ar
    40   116   117    1
    41   121   120    1
    42    26    25    2
    43   107   109   ar
    44   104   105    2
    45   117   120    1
    46   117   118    1
    47    97    96    1
    48    66    67    2
    49   110   111   ar
    50    31    30    2
    51   120   122    1
    52    25    24    1
    53   100    99    1
    54   118   119    2
    55   109   111   ar
    56   109   112   ar
    57    27    24    1
    58    24    23    1
    59    34    33   ar
    60    30    29    1
    61    96    99    1
    62    96    95    1
    63   111   113   ar
    64    99   101    1
    65   112   114   ar
    66    33    35   ar
    67    33    32    1
    68    29    28    1
    69    29    32    1
    70   113   115   ar
    71   114   115   ar
    72    20    19    2
    73   123   124    1
    74    94    93    1
    75    12    11    2
    76   124   125    1
    77   124   127    1
    78   129   127    1
    79    19    18    1
    80    18    21    1
    81    18    17    1
    82    93    91   ar
    83    93    92   ar
    84    82    81   ar
    85    82    80   ar
    86    81    79   ar
    87    11    17   am
    88    11    10    1
    89   125   126    2
    90    22    21    1
    91   127   128    1
    92    80    78   ar
    93    79    77   ar
    94    91    89   ar
    95    78    77   ar
    96    77    76    1
    97    92    90   ar
    98    13    10    1
    99    13    14    1
   100    10     9    1
   101    76    73    1
   102    14    16   am
   103    14    15    2
   104    89    88   ar
   105    90    88   ar
   106    88    87    1
   107     4     3    2
   108    73    72    1
   109    73    74    1
   110     8     6    1
   111    74    83   am
   112    74    75    2
   113    83    84    1
   114     3     2    1
   115    87    84    1
   116     2     5    1
   117     2     1    1
   118    84    85    1
   119     5     6    1
   120     6     7    1
   121    85    86    2
