@<TRIPOS>MOLECULE
tmp/3b26A00.pdb
 140 130 0 0 0
SMALL
GASTEIGER

@<TRIPOS>ATOM
      1  N          3.5370   11.1370    8.6650 N.3    33  LEU33      -0.1245
      2  CA         4.1900   11.6630    7.4620 C.3    33  LEU33       0.1561
      3  C          5.4750   10.8900    7.1310 C.2    33  LEU33       0.2260
      4  O          5.7180   10.5960    5.9600 O.2    33  LEU33      -0.2867
      5  CB         4.4460   13.1680    7.5710 C.3    33  LEU33       0.0270
      6  CG         3.1960   14.0610    7.7960 C.3    33  LEU33       0.0019
      7  CD1        3.6090   15.5090    7.9580 C.3    33  LEU33       0.0001
      8  CD2        2.1880   13.9320    6.6540 C.3    33  LEU33       0.0001
      9  N          4.4720    7.6030    5.4610 N.3    36  ASN36      -0.1225
     10  CA         4.1400    7.8260    4.0430 C.3    36  ASN36       0.1785
     11  C          5.3880    7.9370    3.1870 C.2    36  ASN36       0.2597
     12  O          5.4350    7.3740    2.0930 O.2    36  ASN36      -0.2718
     13  CB         3.2460    9.0620    3.8730 C.3    36  ASN36       0.1169
     14  CG         1.8060    8.8040    4.2550 C.2    36  ASN36       0.2627
     15  OD1        1.3890    7.6700    4.4840 O.2    36  ASN36      -0.2716
     16  ND2        1.0150    9.8450    4.3450 N.am   36  ASN36      -0.0877
     17  N          6.4230    8.6390    3.7080 N.am   37  SER37      -0.1952
     18  CA         7.7130    8.8220    3.0350 C.3    37  SER37       0.1924
     19  C          8.4110    7.4670    2.8980 C.2    37  SER37       0.2314
     20  O          8.9090    7.1510    1.8270 O.2    37  SER37      -0.2863
     21  CB         8.5920    9.7800    3.8390 C.3    37  SER37       0.2116
     22  OG         8.1360   11.1220    3.7690 O.3    37  SER37      -0.2180
     23  N          6.9890    4.4640    2.7890 N.3    39  ASP39      -0.1225
     24  CA         6.2370    3.6810    1.8000 C.3    39  ASP39       0.1805
     25  C          6.5800    4.1160    0.3870 C.2    39  ASP39       0.2597
     26  O          6.6960    3.2600   -0.4810 O.2    39  ASP39      -0.2718
     27  CB         4.7170    3.8090    2.0060 C.3    39  ASP39       0.1424
     28  CG         4.1850    3.2660    3.3150 C.2    39  ASP39       0.3668
     29  OD1        4.9550    2.5630    4.0320 O.co2  39  ASP39      -0.2456
     30  OD2        3.0130    3.5840    3.6570 O.co2  39  ASP39      -0.2456
     31  N          6.7430    5.4390    0.1550 N.am   40  ALA40      -0.1979
     32  CA         7.0960    5.9770   -1.1660 C.3    40  ALA40       0.1597
     33  C          8.5210    5.5570   -1.5360 C.2    40  ALA40       0.2287
     34  O          8.8180    5.3210   -2.7130 O.2    40  ALA40      -0.2864
     35  CB         6.9900    7.4940   -1.1590 C.3    40  ALA40       0.0319
     36  N         11.1430   13.6790    1.1580 N.3    78  ASP78      -0.1239
     37  CA        11.6270   12.3370    0.8520 C.3    78  ASP78       0.1674
     38  C         12.0170   12.2790   -0.6130 C.2    78  ASP78       0.2266
     39  O         11.5280   13.0830   -1.4140 O.2    78  ASP78      -0.2867
     40  CB        10.5920   11.2450    1.2250 C.3    78  ASP78       0.1410
     41  CG         9.3110   11.2530    0.4170 C.2    78  ASP78       0.3668
     42  OD1        9.3750   10.9870   -0.8170 O.co2  78  ASP78      -0.2456
     43  OD2        8.2470   11.5120    1.0050 O.co2  78  ASP78      -0.2456
     44  N          8.9700    7.6080   -4.5130 N.3    81  ILE81      -0.1231
     45  CA         8.4020    7.5330   -5.8700 C.3    81  ILE81       0.1692
     46  C          7.7990    8.8570   -6.3930 C.2    81  ILE81       0.2593
     47  O          7.8050    9.1040   -7.6010 O.2    81  ILE81      -0.2718
     48  CB         7.4180    6.3240   -6.0050 C.3    81  ILE81       0.0266
     49  CG1        7.0560    6.0100   -7.4820 C.3    81  ILE81       0.0019
     50  CG2        6.1520    6.4800   -5.1280 C.3    81  ILE81       0.0020
     51  CD1        7.8900    4.9990   -8.1440 C.3    81  ILE81       0.0001
     52  N          7.2640    9.6710   -5.4870 N.am   82  GLY82      -0.1942
     53  CA         6.6130   10.9240   -5.8530 C.3    82  GLY82       0.2014
     54  C          5.2160   10.6550   -6.3910 C.2    82  GLY82       0.2638
     55  O          4.7740    9.5030   -6.4720 O.2    82  GLY82      -0.2714
     56  N          4.5040   11.7140   -6.7630 N.am   83  MET83      -0.1976
     57  CA         3.1450   11.5750   -7.2970 C.3    83  MET83       0.1605
     58  C          3.0300   12.3270   -8.6040 C.2    83  MET83       0.2287
     59  O          3.5240   13.4550   -8.7130 O.2    83  MET83      -0.2864
     60  CB         2.1160   12.1620   -6.3040 C.3    83  MET83       0.0413
     61  CG         1.8540   11.2920   -5.0700 C.3    83  MET83       0.0598
     62  SD         0.7840   12.1210   -3.8380 S.3    83  MET83      -0.1393
     63  CE         2.0210   13.0340   -2.8940 C.3    83  MET83       0.0692
     64  N         -5.1100   10.8170   -4.5700 N.3    91  ASN91      -0.1225
     65  CA        -4.6430   10.4800   -3.2160 C.3    91  ASN91       0.1785
     66  C         -5.0770   11.5000   -2.1930 C.2    91  ASN91       0.2597
     67  O         -5.4340   11.1250   -1.0880 O.2    91  ASN91      -0.2718
     68  CB        -3.1050   10.3730   -3.1430 C.3    91  ASN91       0.1169
     69  CG        -2.4370    9.2100   -3.8370 C.2    91  ASN91       0.2627
     70  OD1       -1.1990    9.1460   -3.8950 O.2    91  ASN91      -0.2716
     71  ND2       -3.2080    8.3000   -4.4160 N.am   91  ASN91      -0.0877
     72  N         -4.9770   12.7890   -2.5270 N.am   92  LEU92      -0.1980
     73  CA        -5.2790   13.8450   -1.5560 C.3    92  LEU92       0.1596
     74  C         -6.6840   14.4030   -1.6050 C.2    92  LEU92       0.2287
     75  O         -7.1770   14.8540   -0.5820 O.2    92  LEU92      -0.2864
     76  CB        -4.1960   14.9580   -1.5650 C.3    92  LEU92       0.0297
     77  CG        -2.8250   14.6210   -0.9220 C.3    92  LEU92       0.0022
     78  CD1       -2.0240   13.6280   -1.7680 C.3    92  LEU92       0.0001
     79  CD2       -1.9680   15.8380   -0.7900 C.3    92  LEU92       0.0001
     80  N         -8.1350    4.5360    0.3740 N.3    98  SER98      -0.1217
     81  CA        -8.1320    4.7300    1.8270 C.3    98  SER98       0.1889
     82  C         -9.2730    4.0730    2.6140 C.2    98  SER98       0.2288
     83  O        -10.3020    3.7200    2.0490 O.2    98  SER98      -0.2866
     84  CB        -8.0620    6.2210    2.1600 C.3    98  SER98       0.2089
     85  OG        -9.3430    6.8310    2.1490 O.3    98  SER98      -0.2183
     86  N         -5.0130    4.2330    6.3050 N.3   120  GLY120     -0.1210
     87  CA        -4.4020    4.8000    5.1020 C.3   120  GLY120      0.1956
     88  C         -4.6490    6.2810    4.8720 C.2   120  GLY120      0.2611
     89  O         -4.5320    6.7490    3.7360 O.2   120  GLY120     -0.2717
     90  N         -4.9410    7.0300    5.9610 N.am  121  VAL121     -0.1979
     91  CA        -5.2240    8.4820    5.9340 C.3   121  VAL121      0.1595
     92  C         -4.3370    9.3110    6.8740 C.2   121  VAL121      0.2287
     93  O         -4.6560   10.4590    7.1550 O.2   121  VAL121     -0.2864
     94  CB        -6.7460    8.8180    6.0910 C.3   121  VAL121      0.0276
     95  CG1       -7.5200    8.3820    4.8710 C.3   121  VAL121      0.0022
     96  CG2       -7.3520    8.2000    7.3480 C.3   121  VAL121      0.0022
     97  N         -1.7290   11.0640    6.5060 N.3   123  PHE123     -0.1227
     98  CA        -1.3770   12.4040    5.9940 C.3   123  PHE123      0.1736
     99  C         -2.2360   13.4920    6.6350 C.2   123  PHE123      0.2595
    100  O         -1.7040   14.5150    7.0170 O.2   123  PHE123     -0.2718
    101  CB        -1.5470   12.4780    4.4520 C.3   123  PHE123      0.0547
    102  CG        -1.5080   13.8860    3.8930 C.ar  123  PHE123     -0.0202
    103  CD1       -0.2900   14.5460    3.7040 C.ar  123  PHE123     -0.0042
    104  CD2       -2.6880   14.5750    3.6100 C.ar  123  PHE123     -0.0042
    105  CE1       -0.2560   15.8620    3.2240 C.ar  123  PHE123     -0.0003
    106  CE2       -2.6550   15.8970    3.1380 C.ar  123  PHE123     -0.0003
    107  CZ        -1.4390   16.5300    2.9500 C.ar  123  PHE123     -0.0000
    108  N         -3.5620   13.2780    6.7330 N.am  124  TYR124     -0.1976
    109  CA        -4.4800   14.2760    7.2920 C.3   124  TYR124      0.1639
    110  C         -4.2110   14.6990    8.7380 C.2   124  TYR124      0.2290
    111  O         -4.6850   15.7580    9.1460 O.2   124  TYR124     -0.2864
    112  CB        -5.9510   13.9290    7.0000 C.3   124  TYR124      0.0560
    113  CG        -6.1890   13.7570    5.5170 C.ar  124  TYR124     -0.0198
    114  CD1       -6.3830   14.8620    4.6890 C.ar  124  TYR124     -0.0009
    115  CD2       -6.0950   12.5000    4.9170 C.ar  124  TYR124     -0.0009
    116  CE1       -6.5570   14.7120    3.3080 C.ar  124  TYR124      0.0417
    117  CE2       -6.2490   12.3400    3.5430 C.ar  124  TYR124      0.0417
    118  CZ        -6.5000   13.4480    2.7450 C.ar  124  TYR124      0.1957
    119  OH        -6.6890   13.2740    1.4000 O.3   124  TYR124     -0.2866
    120  N          2.1050   20.5690   -0.5020 N.3   135  VAL135     -0.1245
    121  CA         2.7270   19.3140   -0.9210 C.3   135  VAL135      0.1561
    122  C          3.3790   19.5430   -2.3020 C.2   135  VAL135      0.2260
    123  O          2.6800   19.8280   -3.2680 O.2   135  VAL135     -0.2867
    124  CB         1.7270   18.1160   -0.9330 C.3   135  VAL135      0.0252
    125  CG1        2.3890   16.8490   -1.4780 C.3   135  VAL135      0.0019
    126  CG2        1.1520   17.8560    0.4640 C.3   135  VAL135      0.0019
    127  N          8.6970   13.7530   -2.6070 N.3   169  THR169     -0.1218
    128  CA         7.6320   14.5840   -2.0500 C.3   169  THR169      0.1862
    129  C          8.1400   15.4160   -0.8860 C.2   169  THR169      0.2287
    130  O          8.9380   14.9330   -0.0720 O.2   169  THR169     -0.2866
    131  CB         6.4280   13.6900   -1.6820 C.3   169  THR169      0.1770
    132  OG1        5.9890   13.0200   -2.8640 O.3   169  THR169     -0.2211
    133  CG2        5.2490   14.4690   -1.0450 C.3   169  THR169      0.0375
    134  N          6.4530   17.7010    2.1120 N.3   171  VAL171     -0.1245
    135  CA         5.2220   18.0870    2.8150 C.3   171  VAL171      0.1561
    136  C          5.5990   19.2860    3.7050 C.2   171  VAL171      0.2260
    137  O          6.3950   19.1220    4.6420 O.2   171  VAL171     -0.2867
    138  CB         4.6120   16.8960    3.6100 C.3   171  VAL171      0.0252
    139  CG1        3.3900   17.3460    4.4220 C.3   171  VAL171      0.0019
    140  CG2        4.2460   15.7490    2.6670 C.3   171  VAL171      0.0019
@<TRIPOS>BOND
     1    59    58    2
     2    58    57    1
     3    51    49    1
     4    47    46    2
     5    49    48    1
     6    57    56    1
     7    57    60    1
     8    56    54   am
     9    55    54    2
    10    46    45    1
    11    46    52   am
    12    54    53    1
    13    60    61    1
    14    48    45    1
    15    48    50    1
    16    45    44    1
    17    53    52    1
    18    61    62    1
    19    64    65    1
    20    71    69   am
    21    70    69    2
    22    62    63    1
    23    69    68    1
    24   123   122    2
    25    65    68    1
    26    65    66    1
    27   132   131    1
    28    34    33    2
    29   127   128    1
    30    72    66   am
    31    72    73    1
    32   122   121    1
    33    66    67    2
    34   128   131    1
    35   128   129    1
    36    78    77    1
    37   131   133    1
    38    74    73    1
    39    74    75    2
    40    76    73    1
    41    76    77    1
    42    33    32    1
    43   125   124    1
    44    39    38    2
    45    32    35    1
    46    32    31    1
    47   124   121    1
    48   124   126    1
    49    77    79    1
    50   121   120    1
    51   129   130    2
    52    42    41   ar
    53    38    37    1
    54    26    25    2
    55    31    25   am
    56    80    81    1
    57    25    24    1
    58    41    43   ar
    59    41    40    1
    60    37    36    1
    61    37    40    1
    62   119   118    1
    63    24    27    1
    64    24    23    1
    65    81    84    1
    66    81    82    1
    67    20    19    2
    68    27    28    1
    69    83    82    2
    70    12    11    2
    71   134   135    1
    72    85    84    1
    73   140   138    1
    74   118   116   ar
    75   118   117   ar
    76   135   138    1
    77   135   136    1
    78    19    18    1
    79   107   106   ar
    80   107   105   ar
    81    18    17    1
    82    18    21    1
    83   106   104   ar
    84    11    17   am
    85    11    10    1
    86   105   103   ar
    87   116   114   ar
    88    28    30   ar
    89    28    29   ar
    90   117   115   ar
    91   138   139    1
    92   104   102   ar
    93   103   102   ar
    94   136   137    2
    95    89    88    2
    96    22    21    1
    97    13    10    1
    98    13    14    1
    99   102   101    1
   100    10     9    1
   101    14    16   am
   102    14    15    2
   103   101    98    1
   104   114   113   ar
   105    95    94    1
   106    88    87    1
   107    88    90   am
   108   115   113   ar
   109    87    86    1
   110   113   112    1
   111    91    90    1
   112    91    94    1
   113    91    92    1
   114     4     3    2
   115    98    97    1
   116    98    99    1
   117    94    96    1
   118    99   108   am
   119    99   100    2
   120     8     6    1
   121   108   109    1
   122    92    93    2
   123   112   109    1
   124     3     2    1
   125   109   110    1
   126     2     5    1
   127     2     1    1
   128     5     6    1
   129     6     7    1
   130   110   111    2
