@<TRIPOS>MOLECULE
tmp/3b27A00.pdb
 145 133 0 0 0
SMALL
GASTEIGER

@<TRIPOS>ATOM
      1  N          2.7740    1.9110   18.3790 N.3    39  LEU39      -0.1245
      2  CA         3.1420    2.4830   17.0710 C.3    39  LEU39       0.1561
      3  C          3.2580    3.9930   17.1610 C.2    39  LEU39       0.2260
      4  O          4.1530    4.5440   16.5350 O.2    39  LEU39      -0.2867
      5  CB         2.1200    2.0750   16.0000 C.3    39  LEU39       0.0270
      6  CG         1.9730    0.5520   15.7960 C.3    39  LEU39       0.0019
      7  CD1        0.8480    0.2260   14.7810 C.3    39  LEU39       0.0001
      8  CD2        3.3000   -0.1220   15.3420 C.3    39  LEU39       0.0001
      9  N          6.6180    4.7110   18.6270 N.3    42  ASN42      -0.1225
     10  CA         7.6860    4.5780   17.6500 C.3    42  ASN42       0.1785
     11  C          7.7250    5.8050   16.7420 C.2    42  ASN42       0.2597
     12  O          8.8100    6.3120   16.4290 O.2    42  ASN42      -0.2718
     13  CB         7.5080    3.3130   16.8090 C.3    42  ASN42       0.1169
     14  CG         7.8020    2.0470   17.5820 C.2    42  ASN42       0.2627
     15  OD1        8.4510    2.0560   18.6570 O.2    42  ASN42      -0.2716
     16  ND2        7.4410    0.9420   16.9910 N.am   42  ASN42      -0.0877
     17  N          6.5330    6.3190   16.3550 N.am   43  SER43      -0.1952
     18  CA         6.4740    7.5390   15.5360 C.3    43  SER43       0.1924
     19  C          7.0700    8.7080   16.3000 C.2    43  SER43       0.2314
     20  O          7.8810    9.4580   15.7360 O.2    43  SER43      -0.2863
     21  CB         5.0220    7.8580   15.1580 C.3    43  SER43       0.2116
     22  OG         4.5790    6.8880   14.2240 O.3    43  SER43      -0.2180
     23  N         10.7920    8.5450   16.3760 N.3    46  ALA46      -0.1245
     24  CA        11.3280    8.8710   15.0490 C.3    46  ALA46       0.1562
     25  C         11.2840   10.3510   14.8010 C.2    46  ALA46       0.2260
     26  O         12.1810   10.8690   14.1310 O.2    46  ALA46      -0.2867
     27  CB        10.5190    8.1680   13.9740 C.3    46  ALA46       0.0290
     28  N         14.0630   11.9680   16.6810 N.3    49  LYS49      -0.1245
     29  CA        15.3550   11.7980   16.0330 C.3    49  LYS49       0.1561
     30  C         15.5710   12.8640   14.9460 C.2    49  LYS49       0.2260
     31  O         16.6260   13.5010   14.9250 O.2    49  LYS49      -0.2867
     32  CB        15.5090   10.3910   15.4540 C.3    49  LYS49       0.0271
     33  CG        16.9620   10.0120   15.2190 C.3    49  LYS49       0.0035
     34  CD        17.1180    8.5760   14.7520 C.3    49  LYS49       0.0206
     35  CE        16.7140    7.5380   15.7680 C.3    49  LYS49       0.1093
     36  NZ        16.4930    6.2180   15.1300 N.3    49  LYS49      -0.1314
     37  N          3.9160    9.0150    9.9100 N.3    84  ASP84      -0.1239
     38  CA         4.6900   10.0600   10.5720 C.3    84  ASP84       0.1674
     39  C          5.6740   10.6830    9.6260 C.2    84  ASP84       0.2266
     40  O          5.9980   10.0890    8.5960 O.2    84  ASP84      -0.2867
     41  CB         5.3660    9.5860   11.8600 C.3    84  ASP84       0.1410
     42  CG         6.4560    8.5660   11.6160 C.2    84  ASP84       0.3668
     43  OD1        7.4610    8.9080   10.9050 O.co2  84  ASP84      -0.2456
     44  OD2        6.3010    7.4190   12.0870 O.co2  84  ASP84      -0.2456
     45  N         12.2700   10.3870   11.2270 N.3    87  ILE87      -0.1231
     46  CA        13.5350   10.1700   10.5100 C.3    87  ILE87       0.1692
     47  C         13.4530    9.1450    9.3690 C.2    87  ILE87       0.2593
     48  O         14.2270    9.1960    8.4020 O.2    87  ILE87      -0.2718
     49  CB        14.6420    9.8140   11.5640 C.3    87  ILE87       0.0266
     50  CG1       16.0730    9.8650   10.9770 C.3    87  ILE87       0.0019
     51  CG2       14.3980    8.4520   12.2730 C.3    87  ILE87       0.0020
     52  CD1       16.6730   11.2220   10.9750 C.3    87  ILE87       0.0001
     53  N         12.5500    8.1710    9.5040 N.am   88  GLY88      -0.1942
     54  CA        12.4910    7.1230    8.5020 C.3    88  GLY88       0.2014
     55  C         13.6260    6.1330    8.6130 C.2    88  GLY88       0.2638
     56  O         14.4700    6.2510    9.5100 O.2    88  GLY88      -0.2714
     57  N         13.6510    5.1690    7.6880 N.am   89  MET89      -0.1976
     58  CA        14.6890    4.1400    7.7080 C.3    89  MET89       0.1605
     59  C         15.3100    3.9270    6.3650 C.2    89  MET89       0.2287
     60  O         14.6080    3.8510    5.3600 O.2    89  MET89      -0.2864
     61  CB        14.1030    2.7830    8.1730 C.3    89  MET89       0.0413
     62  CG        13.8040    2.7430    9.6220 C.3    89  MET89       0.0598
     63  SD        12.8960    1.2540   10.1500 S.3    89  MET89      -0.1393
     64  CE        11.2230    1.6930    9.6650 C.3    89  MET89       0.0692
     65  N         18.5860   -0.1560    7.5170 N.3    93  ASP93      -0.1239
     66  CA        17.9390    0.0800    8.8140 C.3    93  ASP93       0.1674
     67  C         16.6550   -0.7680    8.8670 C.2    93  ASP93       0.2266
     68  O         16.3510   -1.4010    9.8680 O.2    93  ASP93      -0.2867
     69  CB        17.5090    1.5730    8.9550 C.3    93  ASP93       0.1410
     70  CG        18.5770    2.6290    9.2130 C.2    93  ASP93       0.3668
     71  OD1       19.6830    2.2590    9.7040 O.co2  93  ASP93      -0.2456
     72  OD2       18.2860    3.8510    8.9800 O.co2  93  ASP93      -0.2456
     73  N         16.2520   -3.6310   11.5710 N.3    97  ASN97      -0.1225
     74  CA        15.3450   -3.2780   12.6490 C.3    97  ASN97       0.1785
     75  C         13.9990   -3.9850   12.6230 C.2    97  ASN97       0.2597
     76  O         13.3330   -4.0400   13.6480 O.2    97  ASN97      -0.2718
     77  CB        15.1410   -1.7580   12.7070 C.3    97  ASN97       0.1169
     78  CG        16.3920   -0.9310   12.8910 C.2    97  ASN97       0.2627
     79  OD1       17.4600   -1.4430   13.1990 O.2    97  ASN97      -0.2716
     80  ND2       16.2940    0.3670   12.6280 N.am   97  ASN97      -0.0877
     81  N         13.5940   -4.4980   11.4670 N.am   98  LEU98      -0.1980
     82  CA        12.3060   -5.1850   11.3420 C.3    98  LEU98       0.1596
     83  C         12.4000   -6.6630   11.0500 C.2    98  LEU98       0.2287
     84  O         11.6280   -7.2160   10.2590 O.2    98  LEU98      -0.2864
     85  CB        11.3300   -4.4500   10.3890 C.3    98  LEU98       0.0297
     86  CG        10.6420   -3.2160   10.9500 C.3    98  LEU98       0.0022
     87  CD1       11.6050   -1.9970   11.0580 C.3    98  LEU98       0.0001
     88  CD2        9.5310   -2.8070   10.0490 C.3    98  LEU98       0.0001
     89  N         16.7760   -9.1040   18.7960 N.3   103  LYS103     -0.1245
     90  CA        16.4420   -7.9670   19.6390 C.3   103  LYS103      0.1561
     91  C         16.7450   -8.3800   21.0560 C.2   103  LYS103      0.2260
     92  O         16.5150   -9.5350   21.4520 O.2   103  LYS103     -0.2867
     93  CB        14.9610   -7.5480   19.4930 C.3   103  LYS103      0.0271
     94  CG        14.5720   -6.9820   18.1040 C.3   103  LYS103      0.0035
     95  CD        15.3320   -5.6870   17.7060 C.3   103  LYS103      0.0206
     96  CE        15.0280   -4.5000   18.5970 C.3   103  LYS103      0.1093
     97  NZ        15.6830   -3.2590   18.1090 N.3   103  LYS103     -0.1314
     98  N         11.2640   -3.4190   24.1430 N.3   126  GLY126     -0.1225
     99  CA        11.8130   -2.9230   22.8850 C.3   126  GLY126      0.1811
    100  C         11.3120   -3.5980   21.6310 C.2   126  GLY126      0.2280
    101  O         11.8820   -3.4000   20.5530 O.2   126  GLY126     -0.2866
    102  N          6.6150   -2.8800   18.3410 N.3   129  PHE129     -0.1227
    103  CA         6.0780   -2.9390   16.9690 C.3   129  PHE129      0.1736
    104  C          5.2870   -4.2290   16.7200 C.2   129  PHE129      0.2595
    105  O          4.2500   -4.2150   16.0390 O.2   129  PHE129     -0.2718
    106  CB         7.2410   -2.9220   15.9620 C.3   129  PHE129      0.0547
    107  CG         6.8650   -3.2370   14.5370 C.ar  129  PHE129     -0.0202
    108  CD1        6.2010   -2.2950   13.7480 C.ar  129  PHE129     -0.0042
    109  CD2        7.2130   -4.4540   13.9620 C.ar  129  PHE129     -0.0042
    110  CE1        5.8630   -2.5870   12.4310 C.ar  129  PHE129     -0.0003
    111  CE2        6.8910   -4.7320   12.6320 C.ar  129  PHE129     -0.0003
    112  CZ         6.2140   -3.7970   11.8780 C.ar  129  PHE129     -0.0000
    113  N          5.7770   -5.3670   17.2480 N.am  130  TYR130     -0.1976
    114  CA         5.1440   -6.6440   16.9870 C.3   130  TYR130      0.1639
    115  C          3.7450   -6.7860   17.5850 C.2   130  TYR130      0.2290
    116  O          2.9990   -7.6690   17.1520 O.2   130  TYR130     -0.2864
    117  CB         6.0940   -7.8130   17.3280 C.3   130  TYR130      0.0560
    118  CG         7.3380   -7.7880   16.4570 C.ar  130  TYR130     -0.0198
    119  CD1        7.3010   -8.2450   15.1440 C.ar  130  TYR130     -0.0009
    120  CD2        8.5290   -7.2170   16.9200 C.ar  130  TYR130     -0.0009
    121  CE1        8.4210   -8.1380   14.3050 C.ar  130  TYR130      0.0417
    122  CE2        9.6640   -7.1530   16.1100 C.ar  130  TYR130      0.0417
    123  CZ         9.6090   -7.6340   14.8100 C.ar  130  TYR130      0.1957
    124  OH        10.7050   -7.5660   13.9750 O.3   130  TYR130     -0.2866
    125  N          5.0500   -1.7460    5.9920 N.3   141  VAL141     -0.1245
    126  CA         5.7640   -0.5970    6.5050 C.3   141  VAL141      0.1561
    127  C          6.4310    0.0770    5.3150 C.2   141  VAL141      0.2260
    128  O          7.2990   -0.5340    4.6710 O.2   141  VAL141     -0.2867
    129  CB         6.8040   -0.9650    7.5760 C.3   141  VAL141      0.0252
    130  CG1        7.5940    0.2940    7.9980 C.3   141  VAL141      0.0019
    131  CG2        6.0960   -1.5950    8.7840 C.3   141  VAL141      0.0019
    132  N          7.6920    7.4100    8.0390 N.3   175  THR175     -0.1218
    133  CA         7.2800    6.0190    8.0080 C.3   175  THR175      0.1862
    134  C          5.7770    5.9230    8.0960 C.2   175  THR175      0.2287
    135  O          5.1260    6.6640    8.8370 O.2   175  THR175     -0.2866
    136  CB         7.9640    5.2510    9.1780 C.3   175  THR175      0.1770
    137  OG1        9.3800    5.3920    9.0710 O.3   175  THR175     -0.2211
    138  CG2        7.6200    3.7600    9.2400 C.3   175  THR175      0.0375
    139  N          2.8900    2.9110    8.6990 N.3   177  VAL177     -0.1245
    140  CA         2.6160    1.5280    9.0770 C.3   177  VAL177      0.1561
    141  C          1.1350    1.3060    8.6780 C.2   177  VAL177      0.2260
    142  O          0.2410    1.9920    9.1910 O.2   177  VAL177     -0.2867
    143  CB         2.8290    1.2900   10.5920 C.3   177  VAL177      0.0252
    144  CG1        2.4620   -0.1510   10.9740 C.3   177  VAL177      0.0019
    145  CG2        4.2770    1.6200   11.0180 C.3   177  VAL177      0.0019
@<TRIPOS>BOND
     1   128   127    2
     2   127   126    1
     3    60    59    2
     4   125   126    1
     5    59    58    1
     6   126   129    1
     7    65    66    1
     8   129   130    1
     9   129   131    1
    10    57    58    1
    11    57    55   am
    12    58    61    1
    13   133   132    1
    14   133   134    1
    15   133   136    1
    16   134   135    2
    17    61    62    1
    18    48    47    2
    19    54    55    1
    20    54    53    1
    21    40    39    2
    22    55    56    2
    23   141   140    1
    24   141   142    2
    25   139   140    1
    26    66    67    1
    27    66    69    1
    28    67    68    2
    29    69    70    1
    30    72    70   ar
    31   137   136    1
    32   140   143    1
    33   136   138    1
    34    70    71   ar
    35    47    53   am
    36    47    46    1
    37    62    63    1
    38    39    38    1
    39    64    63    1
    40    37    38    1
    41    88    86    1
    42    84    83    2
    43    85    86    1
    44    85    82    1
    45    46    45    1
    46    46    49    1
    47    38    41    1
    48   143   144    1
    49   143   145    1
    50    43    42   ar
    51    86    87    1
    52    52    50    1
    53    50    49    1
    54    83    82    1
    55    82    81    1
    56    81    75   am
    57    49    51    1
    58    73    74    1
    59    42    41    1
    60    42    44   ar
    61   112   110   ar
    62   112   111   ar
    63   110   108   ar
    64    75    74    1
    65    75    76    2
    66    80    78   am
    67   111   109   ar
    68    74    77    1
    69    77    78    1
    70    78    79    2
    71   108   107   ar
    72   109   107   ar
    73    27    24    1
    74   124   123    1
    75    26    25    2
    76    22    21    1
    77   121   123   ar
    78   121   119   ar
    79   107   106    1
    80    34    33    1
    81    34    35    1
    82     7     6    1
    83    25    24    1
    84   123   122   ar
    85    31    30    2
    86    30    29    1
    87    24    23    1
    88    36    35    1
    89   119   118   ar
    90    21    18    1
    91    33    32    1
    92     8     6    1
    93    32    29    1
    94    18    19    1
    95    18    17    1
    96    20    19    2
    97     6     5    1
    98   106   103    1
    99     5     2    1
   100    29    28    1
   101   105   104    2
   102   122   120   ar
   103    17    11   am
   104    12    11    2
   105   118   120   ar
   106   118   117    1
   107     4     3    2
   108   104   103    1
   109   104   113   am
   110    11    10    1
   111    13    14    1
   112    13    10    1
   113   103   102    1
   114   114   113    1
   115   114   117    1
   116   114   115    1
   117    16    14   am
   118     2     3    1
   119     2     1    1
   120   116   115    2
   121    14    15    2
   122    10     9    1
   123    95    94    1
   124    95    96    1
   125    94    93    1
   126    97    96    1
   127    89    90    1
   128    93    90    1
   129    90    91    1
   130   101   100    2
   131    91    92    2
   132   100    99    1
   133    99    98    1
