@<TRIPOS>MOLECULE
tmp/3b28A00.pdb
 140 129 0 0 0
SMALL
GASTEIGER

@<TRIPOS>ATOM
      1  N        -27.9200   30.4710  -17.5140 N.3    33  LEU33      -0.1245
      2  CA       -27.8340   29.2510  -16.7280 C.3    33  LEU33       0.1561
      3  C        -29.1950   28.9390  -16.0840 C.2    33  LEU33       0.2260
      4  O        -29.5890   27.7630  -16.0360 O.2    33  LEU33      -0.2867
      5  CB       -26.7580   29.4210  -15.6540 C.3    33  LEU33       0.0270
      6  CG       -25.3190   29.5690  -16.2120 C.3    33  LEU33       0.0019
      7  CD1      -24.3210   29.8010  -15.0690 C.3    33  LEU33       0.0001
      8  CD2      -24.8970   28.3240  -17.0290 C.3    33  LEU33       0.0001
      9  N        -31.3610   27.3020  -18.7000 N.3    36  ASN36      -0.1225
     10  CA       -31.0290   25.8950  -18.8720 C.3    36  ASN36       0.1785
     11  C        -31.5890   25.0580  -17.7310 C.2    36  ASN36       0.2597
     12  O        -32.1100   23.9660  -17.9850 O.2    36  ASN36      -0.2718
     13  CB       -29.5240   25.7210  -18.9520 C.3    36  ASN36       0.1169
     14  CG       -28.9430   26.0150  -20.3120 C.2    36  ASN36       0.2627
     15  OD1      -29.6450   26.2860  -21.2880 O.2    36  ASN36      -0.2716
     16  ND2      -27.6240   25.9640  -20.3880 N.am   36  ASN36      -0.0877
     17  N        -31.5100   25.5800  -16.5040 N.am   37  SER37      -0.1952
     18  CA       -32.0710   24.8600  -15.3580 C.3    37  SER37       0.1924
     19  C        -33.5920   24.7130  -15.4960 C.2    37  SER37       0.2314
     20  O        -34.1350   23.6160  -15.2580 O.2    37  SER37      -0.2863
     21  CB       -31.7800   25.6150  -14.0740 C.3    37  SER37       0.2116
     22  OG       -30.4020   25.4920  -13.7460 O.3    37  SER37      -0.2180
     23  N        -34.3650   22.0400  -17.9540 N.3    40  ALA40      -0.1245
     24  CA       -34.1030   20.6970  -17.3940 C.3    40  ALA40       0.1562
     25  C        -35.2430   20.2860  -16.4300 C.2    40  ALA40       0.2260
     26  O        -35.6080   19.1140  -16.3440 O.2    40  ALA40      -0.2867
     27  CB       -32.7720   20.7080  -16.6520 C.3    40  ALA40       0.0290
     28  N        -29.9660   22.8870   -9.8110 N.3    78  ASP78      -0.1239
     29  CA       -31.3510   22.6000  -10.0810 C.3    78  ASP78       0.1674
     30  C        -31.6100   21.1200   -9.7820 C.2    78  ASP78       0.2266
     31  O        -30.6770   20.3150   -9.6850 O.2    78  ASP78      -0.2867
     32  CB       -31.7360   22.9340  -11.5350 C.3    78  ASP78       0.1410
     33  CG       -30.9770   22.1410  -12.5620 C.2    78  ASP78       0.3668
     34  OD1      -31.1530   20.8800  -12.5960 O.co2  78  ASP78      -0.2456
     35  OD2      -30.1710   22.7600  -13.3350 O.co2  78  ASP78      -0.2456
     36  N        -33.6400   17.2800  -14.9810 N.3    81  ILE81      -0.1231
     37  CA       -33.4180   15.9430  -15.5070 C.3    81  ILE81       0.1692
     38  C        -31.9920   15.4450  -15.3140 C.2    81  ILE81       0.2593
     39  O        -31.7950   14.2300  -15.1980 O.2    81  ILE81      -0.2718
     40  CB       -33.8980   15.8810  -16.9850 C.3    81  ILE81       0.0266
     41  CG1      -33.9380   14.4240  -17.5260 C.3    81  ILE81       0.0019
     42  CG2      -33.0280   16.7580  -17.9120 C.3    81  ILE81       0.0020
     43  CD1      -35.1470   13.6260  -17.0670 C.3    81  ILE81       0.0001
     44  N        -31.0020   16.3530  -15.3050 N.am   82  GLY82      -0.1942
     45  CA       -29.6220   15.9000  -15.2230 C.3    82  GLY82       0.2014
     46  C        -29.1480   15.2440  -16.5050 C.2    82  GLY82       0.2638
     47  O        -29.8710   15.1650  -17.5030 O.2    82  GLY82      -0.2714
     48  N        -27.8780   14.8080  -16.4900 N.am   83  MET83      -0.1976
     49  CA       -27.2390   14.2250  -17.6570 C.3    83  MET83       0.1605
     50  C        -26.5340   12.9500  -17.3120 C.2    83  MET83       0.2287
     51  O        -25.8590   12.8620  -16.2790 O.2    83  MET83      -0.2864
     52  CB       -26.1800   15.2090  -18.1830 C.3    83  MET83       0.0413
     53  CG       -26.7900   16.3790  -18.9110 C.3    83  MET83       0.0598
     54  SD       -25.5720   17.6580  -19.3980 S.3    83  MET83      -0.1393
     55  CE       -25.4200   18.5750  -17.7950 C.3    83  MET83       0.0692
     56  N        -24.5820   12.0720  -22.1530 N.3    87  ASP87      -0.1239
     57  CA       -25.2290   13.3780  -22.3830 C.3    87  ASP87       0.1674
     58  C        -24.2580   14.5010  -22.0190 C.2    87  ASP87       0.2266
     59  O        -24.2420   15.5400  -22.6660 O.2    87  ASP87      -0.2867
     60  CB       -26.4950   13.5400  -21.5180 C.3    87  ASP87       0.1410
     61  CG       -27.6270   12.5640  -21.7270 C.2    87  ASP87       0.3668
     62  OD1      -27.7160   11.9720  -22.8370 O.co2  87  ASP87      -0.2456
     63  OD2      -28.4670   12.4110  -20.7900 O.co2  87  ASP87      -0.2456
     64  N        -23.2970   17.0650  -24.8090 N.3    91  ASN91      -0.1225
     65  CA       -23.8690   18.4120  -24.6760 C.3    91  ASN91       0.1785
     66  C        -22.8640   19.4830  -24.4130 C.2    91  ASN91       0.2597
     67  O        -23.0200   20.6010  -24.8920 O.2    91  ASN91      -0.2718
     68  CB       -24.8850   18.4760  -23.5160 C.3    91  ASN91       0.1169
     69  CG       -26.1670   17.7490  -23.7390 C.2    91  ASN91       0.2627
     70  OD1      -26.4140   17.2440  -24.8210 O.2    91  ASN91      -0.2716
     71  ND2      -26.9810   17.6420  -22.6760 N.am   91  ASN91      -0.0877
     72  N        -21.7840   19.1550  -23.6630 N.am   92  LEU92      -0.1980
     73  CA       -20.8330   20.1950  -23.3140 C.3    92  LEU92       0.1596
     74  C        -19.5630   20.1360  -24.1830 C.2    92  LEU92       0.2287
     75  O        -18.8340   21.1270  -24.2650 O.2    92  LEU92      -0.2864
     76  CB       -20.4830   20.1320  -21.8070 C.3    92  LEU92       0.0297
     77  CG       -21.5290   20.7040  -20.8420 C.3    92  LEU92       0.0022
     78  CD1      -22.8220   19.8820  -20.8150 C.3    92  LEU92       0.0001
     79  CD2      -20.9870   20.8470  -19.4620 C.3    92  LEU92       0.0001
     80  N        -26.9770   22.2160  -30.7560 N.3    98  SER98      -0.1217
     81  CA       -26.8250   23.6550  -30.6120 C.3    98  SER98       0.1889
     82  C        -26.7330   24.4140  -31.9060 C.2    98  SER98       0.2288
     83  O        -26.3960   23.8570  -32.9620 O.2    98  SER98      -0.2866
     84  CB       -25.6160   23.9570  -29.7410 C.3    98  SER98       0.2089
     85  OG       -24.4230   23.8820  -30.5160 O.3    98  SER98      -0.2183
     86  N        -28.8990   28.1050  -28.3430 N.3   120  GLY120     -0.1210
     87  CA       -28.7140   26.8410  -27.6360 C.3   120  GLY120      0.1956
     88  C        -27.3500   26.6490  -27.0000 C.2   120  GLY120      0.2611
     89  O        -26.9670   25.5120  -26.6930 O.2   120  GLY120     -0.2717
     90  N        -26.6080   27.7480  -26.7880 N.am  121  VAL121     -0.1979
     91  CA       -25.2520   27.7010  -26.2360 C.3   121  VAL121      0.1595
     92  C        -25.0640   28.6660  -25.0880 C.2   121  VAL121      0.2287
     93  O        -23.9300   28.9930  -24.7260 O.2   121  VAL121     -0.2864
     94  CB       -24.1800   27.8930  -27.3380 C.3   121  VAL121      0.0276
     95  CG1      -24.0840   26.6610  -28.1990 C.3   121  VAL121      0.0022
     96  CG2      -24.4600   29.1310  -28.1910 C.3   121  VAL121      0.0022
     97  N        -25.0490   28.3330  -22.0100 N.3   123  PHE123     -0.1227
     98  CA       -24.1330   27.8720  -20.9400 C.3   123  PHE123      0.1736
     99  C        -22.7450   28.4920  -21.0420 C.2   123  PHE123      0.2595
    100  O        -22.1470   28.8490  -20.0160 O.2   123  PHE123     -0.2718
    101  CB       -23.9680   26.3580  -21.0540 C.3   123  PHE123      0.0547
    102  CG       -22.8270   25.7710  -20.2360 C.ar  123  PHE123     -0.0202
    103  CD1      -22.9820   25.5140  -18.8770 C.ar  123  PHE123     -0.0042
    104  CD2      -21.5970   25.4770  -20.8280 C.ar  123  PHE123     -0.0042
    105  CE1      -21.9350   24.9790  -18.1220 C.ar  123  PHE123     -0.0003
    106  CE2      -20.5370   24.9460  -20.0650 C.ar  123  PHE123     -0.0003
    107  CZ       -20.7080   24.7090  -18.7140 C.ar  123  PHE123     -0.0000
    108  N        -22.2220   28.5980  -22.2800 N.am  124  TYR124     -0.1976
    109  CA       -20.8530   29.0860  -22.4420 C.3   124  TYR124      0.1639
    110  C        -20.6520   30.5430  -22.0540 C.2   124  TYR124      0.2290
    111  O        -19.5090   30.9500  -21.8380 O.2   124  TYR124     -0.2864
    112  CB       -20.3180   28.7520  -23.8380 C.3   124  TYR124      0.0560
    113  CG       -20.3270   27.2620  -24.1280 C.ar  124  TYR124     -0.0198
    114  CD1      -19.2760   26.4430  -23.7090 C.ar  124  TYR124     -0.0009
    115  CD2      -21.4110   26.6660  -24.7720 C.ar  124  TYR124     -0.0009
    116  CE1      -19.3160   25.0550  -23.9190 C.ar  124  TYR124      0.0417
    117  CE2      -21.4620   25.2930  -24.9830 C.ar  124  TYR124      0.0417
    118  CZ       -20.3950   24.4960  -24.5910 C.ar  124  TYR124      0.1957
    119  OH       -20.4920   23.1350  -24.8300 O.3   124  TYR124     -0.2866
    120  N        -19.1970   21.2390  -13.6010 N.3   135  VAL135     -0.1245
    121  CA       -20.5980   20.8440  -13.7240 C.3   135  VAL135      0.1561
    122  C        -20.7480   19.4680  -13.0850 C.2   135  VAL135      0.2260
    123  O        -20.1240   18.4980  -13.5380 O.2   135  VAL135     -0.2867
    124  CB       -21.0990   20.8410  -15.1990 C.3   135  VAL135      0.0252
    125  CG1      -22.5410   20.3400  -15.2710 C.3   135  VAL135      0.0019
    126  CG2      -20.9790   22.2360  -15.8180 C.3   135  VAL135      0.0019
    127  N        -28.5300   19.1170  -11.8040 N.3   169  THR169     -0.1218
    128  CA       -27.2390   19.6490  -12.2490 C.3   169  THR169      0.1862
    129  C        -26.8480   20.8350  -11.3780 C.2   169  THR169      0.2287
    130  O        -27.6930   21.6690  -11.0090 O.2   169  THR169     -0.2866
    131  CB       -27.3210   20.0120  -13.7530 C.3   169  THR169      0.1770
    132  OG1      -27.6830   18.8720  -14.5140 O.3   169  THR169     -0.2211
    133  CG2      -26.0250   20.6270  -14.3350 C.3   169  THR169      0.0375
    134  N        -23.9520   23.9120  -11.4870 N.3   171  VAL171     -0.1245
    135  CA       -22.9310   24.5950  -12.2720 C.3   171  VAL171      0.1561
    136  C        -22.1870   25.4820  -11.2970 C.2   171  VAL171      0.2260
    137  O        -22.7700   26.4130  -10.7390 O.2   171  VAL171     -0.2867
    138  CB       -23.5510   25.4120  -13.4370 C.3   171  VAL171      0.0252
    139  CG1      -22.4460   26.1790  -14.1750 C.3   171  VAL171      0.0019
    140  CG2      -24.3210   24.5020  -14.3920 C.3   171  VAL171      0.0019
@<TRIPOS>BOND
     1    83    82    2
     2    82    81    1
     3    80    81    1
     4    81    84    1
     5    85    84    1
     6    86    87    1
     7    95    94    1
     8    96    94    1
     9    87    88    1
    10    94    91    1
    11    88    90   am
    12    88    89    2
    13    90    91    1
    14    91    92    1
    15    92    93    2
    16   117   115   ar
    17   117   118   ar
    18    67    66    2
    19   119   118    1
    20    70    69    2
    21    64    65    1
    22   115   113   ar
    23    65    66    1
    24    65    68    1
    25   118   116   ar
    26    66    72   am
    27    75    74    2
    28    74    73    1
    29   113   112    1
    30   113   114   ar
    31   116   114   ar
    32   112   109    1
    33    69    68    1
    34    69    71   am
    35    72    73    1
    36    73    76    1
    37    62    61   ar
    38    59    58    2
    39   109   108    1
    40   109   110    1
    41    57    56    1
    42    57    58    1
    43    57    60    1
    44   108    99   am
    45   110   111    2
    46    97    98    1
    47    76    77    1
    48    61    60    1
    49    61    63   ar
    50    15    14    2
    51   101    98    1
    52   101   102    1
    53    99    98    1
    54    99   100    2
    55    77    78    1
    56    77    79    1
    57   104   102   ar
    58   104   106   ar
    59    16    14   am
    60    14    13    1
    61   102   103   ar
    62   106   107   ar
    63    54    53    1
    64    54    55    1
    65    13    10    1
    66    53    52    1
    67   103   105   ar
    68    10     9    1
    69    10    11    1
    70   107   105   ar
    71    52    49    1
    72    12    11    2
    73    23    24    1
    74    42    40    1
    75    11    17   am
    76    49    50    1
    77    49    48    1
    78    41    43    1
    79    41    40    1
    80     1     2    1
    81    47    46    2
    82    24    27    1
    83    24    25    1
    84    50    51    2
    85     8     6    1
    86    40    37    1
    87     2     3    1
    88     2     5    1
    89    46    48   am
    90    46    45    1
    91    17    18    1
    92    25    26    2
    93     6     5    1
    94     6     7    1
    95     3     4    2
    96   126   124    1
    97    37    38    1
    98    37    36    1
    99    19    18    1
   100    19    20    2
   101    18    21    1
   102    38    44   am
   103    38    39    2
   104    44    45    1
   105   125   124    1
   106   124   121    1
   107   132   131    1
   108   140   138    1
   109   133   131    1
   110   139   138    1
   111    21    22    1
   112   131   128    1
   113   121   120    1
   114   121   122    1
   115   123   122    2
   116   138   135    1
   117    35    33   ar
   118    34    33   ar
   119    33    32    1
   120   135   134    1
   121   135   136    1
   122   128   127    1
   123   128   129    1
   124    32    29    1
   125   129   130    2
   126   136   137    2
   127    29    28    1
   128    29    30    1
   129    30    31    2
