@<TRIPOS>MOLECULE
tmp/3b29A00.pdb
 68 62 0 0 0
SMALL
GASTEIGER

@<TRIPOS>ATOM
      1  N         87.6930   70.3020   20.9400 N.3     6  LEU6       -0.1245
      2  CA        87.5730   69.1440   21.8240 C.3     6  LEU6        0.1561
      3  C         88.8750   68.3550   21.8740 C.2     6  LEU6        0.2260
      4  O         89.3300   67.9540   22.9460 O.2     6  LEU6       -0.2867
      5  CB        86.4330   68.2320   21.3700 C.3     6  LEU6        0.0270
      6  CG        85.0180   68.7990   21.4780 C.3     6  LEU6        0.0019
      7  CD1       84.0290   67.9250   20.7190 C.3     6  LEU6        0.0001
      8  CD2       84.6090   68.9480   22.9380 C.3     6  LEU6        0.0001
      9  N         91.1940   70.0360   23.9840 N.3     9  ALA9       -0.1231
     10  CA        90.7890   69.8650   25.3760 C.3     9  ALA9        0.1694
     11  C         91.2990   68.5350   25.9300 C.2     9  ALA9        0.2591
     12  O         91.9430   68.4930   26.9810 O.2     9  ALA9       -0.2718
     13  CB        89.2770   69.9530   25.5060 C.3     9  ALA9        0.0304
     14  N         91.0080   67.4500   25.2180 N.am   10  VAL10      -0.1980
     15  CA        91.4950   66.1320   25.6030 C.3    10  VAL10       0.1595
     16  C         93.0170   66.1400   25.6950 C.2    10  VAL10       0.2287
     17  O         93.5950   65.5970   26.6360 O.2    10  VAL10      -0.2864
     18  CB        91.0520   65.0510   24.5990 C.3    10  VAL10       0.0276
     19  CG1       91.6200   63.6940   24.9920 C.3    10  VAL10       0.0022
     20  CG2       89.5330   64.9980   24.5130 C.3    10  VAL10       0.0022
     21  N         94.1340   67.7800   28.7370 N.3    13  LEU13      -0.1245
     22  CA        93.8370   66.8330   29.8010 C.3    13  LEU13       0.1561
     23  C         94.9730   65.8230   29.8930 C.2    13  LEU13       0.2260
     24  O         95.5180   65.5820   30.9710 O.2    13  LEU13      -0.2867
     25  CB        92.5170   66.1100   29.5250 C.3    13  LEU13       0.0270
     26  CG        91.6490   65.7010   30.7220 C.3    13  LEU13       0.0019
     27  CD1       90.7050   64.5720   30.3280 C.3    13  LEU13       0.0001
     28  CD2       92.4880   65.2920   31.9240 C.3    13  LEU13       0.0001
     29  N         85.7720   61.6970   13.0330 N.3    74  HIS74      -0.1241
     30  CA        84.7810   62.4380   13.8030 C.3    74  HIS74       0.1621
     31  C         85.4240   62.9880   15.0690 C.2    74  HIS74       0.2264
     32  O         86.0020   62.2350   15.8540 O.2    74  HIS74      -0.2867
     33  CB        83.5990   61.5310   14.1560 C.3    74  HIS74       0.0745
     34  CG        82.4940   62.2300   14.8850 C.ar   74  HIS74       0.0817
     35  ND1       81.3890   62.7460   14.2430 N.ar   74  HIS74      -0.2268
     36  CD2       82.3220   62.4930   16.2020 C.ar   74  HIS74       0.1154
     37  CE1       80.5850   63.3010   15.1330 C.ar   74  HIS74       0.1986
     38  NE2       81.1280   63.1610   16.3290 N.ar   74  HIS74      -0.2212
     39  N         84.1150   64.4230   17.8820 N.3    76  GLY76      -0.1210
     40  CA        83.4830   64.0040   19.1290 C.3    76  GLY76       0.1956
     41  C         83.7850   62.5650   19.5000 C.2    76  GLY76       0.2611
     42  O         84.0030   62.2480   20.6690 O.2    76  GLY76      -0.2717
     43  N         83.7910   61.6890   18.5020 N.am   77  ALA77      -0.1979
     44  CA        84.0770   60.2780   18.7260 C.3    77  ALA77       0.1597
     45  C         85.5400   60.0870   19.1070 C.2    77  ALA77       0.2287
     46  O         85.8660   59.2970   19.9960 O.2    77  ALA77      -0.2864
     47  CB        83.7350   59.4610   17.4860 C.3    77  ALA77       0.0319
     48  N         87.4160   62.3190   20.5080 N.3    79  ALA79      -0.1231
     49  CA        87.5860   62.9110   21.8300 C.3    79  ALA79       0.1694
     50  C         87.0930   61.9810   22.9370 C.2    79  ALA79       0.2591
     51  O         87.6950   61.9100   24.0070 O.2    79  ALA79      -0.2718
     52  CB        86.8800   64.2530   21.9060 C.3    79  ALA79       0.0304
     53  N         85.9990   61.2690   22.6790 N.am   80  LEU80      -0.1980
     54  CA        85.4650   60.3200   23.6520 C.3    80  LEU80       0.1596
     55  C         86.4350   59.1730   23.9100 C.2    80  LEU80       0.2287
     56  O         86.6660   58.7950   25.0590 O.2    80  LEU80      -0.2864
     57  CB        84.1070   59.7740   23.2070 C.3    80  LEU80       0.0297
     58  CG        82.8960   60.6620   23.5030 C.3    80  LEU80       0.0022
     59  CD1       81.6070   59.9580   23.1010 C.3    80  LEU80       0.0001
     60  CD2       82.8600   61.0540   24.9750 C.3    80  LEU80       0.0001
     61  N         89.2360   60.3510   26.0950 N.3    83  LEU83      -0.1245
     62  CA        88.9330   60.2930   27.5200 C.3    83  LEU83       0.1561
     63  C         89.0530   58.8670   28.0360 C.2    83  LEU83       0.2260
     64  O         89.7770   58.6040   28.9970 O.2    83  LEU83      -0.2867
     65  CB        87.5240   60.8190   27.8000 C.3    83  LEU83       0.0270
     66  CG        87.2480   62.2990   27.5400 C.3    83  LEU83       0.0019
     67  CD1       85.8300   62.6410   27.9650 C.3    83  LEU83       0.0001
     68  CD2       88.2530   63.1770   28.2680 C.3    83  LEU83       0.0001
@<TRIPOS>BOND
     1    29    30    1
     2    30    33    1
     3    30    31    1
     4    33    34    1
     5    35    34   ar
     6    35    37   ar
     7    34    36   ar
     8    31    32    2
     9    37    38   ar
    10    36    38   ar
    11    47    44    1
    12    39    40    1
    13    43    44    1
    14    43    41   am
    15    44    45    1
    16    45    46    2
    17    40    41    1
    18    41    42    2
    19    48    49    1
    20     7     6    1
    21     1     2    1
    22     5     6    1
    23     5     2    1
    24     6     8    1
    25     2     3    1
    26    49    52    1
    27    49    50    1
    28     3     4    2
    29    53    50   am
    30    53    54    1
    31    50    51    2
    32    59    58    1
    33    57    58    1
    34    57    54    1
    35    58    60    1
    36    54    55    1
    37    55    56    2
    38     9    10    1
    39    20    18    1
    40    18    19    1
    41    18    15    1
    42    14    15    1
    43    14    11   am
    44    10    13    1
    45    10    11    1
    46    15    16    1
    47    16    17    2
    48    11    12    2
    49    61    62    1
    50    62    65    1
    51    62    63    1
    52    66    65    1
    53    66    67    1
    54    66    68    1
    55    63    64    2
    56    21    22    1
    57    25    22    1
    58    25    26    1
    59    22    23    1
    60    23    24    2
    61    27    26    1
    62    26    28    1
