@<TRIPOS>MOLECULE
tmp/3b29A02.pdb
 93 90 0 0 0
SMALL
GASTEIGER

@<TRIPOS>ATOM
      1  N        103.8120   56.2060   25.1970 N.3    58  TYR58      -0.1241
      2  CA       102.5970   55.9990   24.4210 C.3    58  TYR58       0.1605
      3  C        101.8770   57.3160   24.1500 C.2    58  TYR58       0.2264
      4  O        101.0290   57.3970   23.2630 O.2    58  TYR58      -0.2867
      5  CB       101.6610   55.0200   25.1320 C.3    58  TYR58       0.0534
      6  CG       101.9990   53.5690   24.8840 C.ar   58  TYR58      -0.0201
      7  CD1      101.5050   52.9040   23.7690 C.ar   58  TYR58      -0.0009
      8  CD2      102.8100   52.8610   25.7640 C.ar   58  TYR58      -0.0009
      9  CE1      101.8100   51.5760   23.5340 C.ar   58  TYR58       0.0417
     10  CE2      103.1210   51.5310   25.5380 C.ar   58  TYR58       0.0417
     11  CZ       102.6180   50.8950   24.4210 C.ar   58  TYR58       0.1957
     12  OH       102.9200   49.5730   24.1880 O.3    58  TYR58      -0.2866
     13  N        101.8470   58.5200   20.5950 N.3    61  LEU61      -0.1245
     14  CA       100.9530   57.6500   19.8350 C.3    61  LEU61       0.1561
     15  C         99.5010   58.0510   20.0630 C.2    61  LEU61       0.2260
     16  O         98.6890   58.0550   19.1350 O.2    61  LEU61      -0.2867
     17  CB       101.1540   56.1860   20.2320 C.3    61  LEU61       0.0270
     18  CG       102.2350   55.3990   19.4910 C.3    61  LEU61       0.0019
     19  CD1      103.5890   56.0840   19.6030 C.3    61  LEU61       0.0001
     20  CD2      102.2990   53.9790   20.0240 C.3    61  LEU61       0.0001
     21  N         98.2100   46.2550   36.7560 N.3   103  ARG103     -0.1231
     22  CA        98.4060   47.1090   35.5910 C.3   103  ARG103      0.1694
     23  C         97.7550   46.5070   34.3510 C.2   103  ARG103      0.2591
     24  O         97.4660   47.2160   33.3890 O.2   103  ARG103     -0.2718
     25  CB        99.8970   47.3080   35.3210 C.3   103  ARG103      0.0321
     26  CG       100.4770   46.3000   34.3350 C.3   103  ARG103      0.0489
     27  CD       101.9960   46.3560   34.2970 C.3   103  ARG103      0.2205
     28  NE       102.5460   45.5080   33.2420 N.pl3 103  ARG103     -0.0865
     29  CZ       102.6450   44.1840   33.3190 C.cat 103  ARG103      0.5346
     30  NH1      102.2260   43.5450   34.4030 N.pl3 103  ARG103      0.1354
     31  NH2      103.1600   43.4960   32.3090 N.pl3 103  ARG103      0.1354
     32  N         97.5310   45.1970   34.3750 N.am  104  LEU104     -0.1980
     33  CA        97.0500   44.4770   33.1960 C.3   104  LEU104      0.1596
     34  C         95.6550   44.9120   32.7530 C.2   104  LEU104      0.2287
     35  O         95.4700   45.3520   31.6180 O.2   104  LEU104     -0.2864
     36  CB        97.0940   42.9650   33.4300 C.3   104  LEU104      0.0297
     37  CG        98.4900   42.3620   33.5960 C.3   104  LEU104      0.0022
     38  CD1       98.3970   40.8740   33.8810 C.3   104  LEU104      0.0001
     39  CD2       99.3400   42.6240   32.3610 C.3   104  LEU104      0.0001
     40  N         95.6760   48.2340   31.4230 N.3   107  LEU107     -0.1231
     41  CA        96.5130   48.2450   30.2320 C.3   107  LEU107      0.1693
     42  C         95.7110   47.8140   29.0140 C.2   107  LEU107      0.2592
     43  O         95.8090   48.4280   27.9500 O.2   107  LEU107     -0.2718
     44  CB        97.7280   47.3360   30.4050 C.3   107  LEU107      0.0284
     45  CG        98.5950   47.1940   29.1510 C.3   107  LEU107      0.0019
     46  CD1       99.2390   48.5220   28.7820 C.3   107  LEU107      0.0001
     47  CD2       99.6470   46.1110   29.3390 C.3   107  LEU107      0.0001
     48  N         94.9210   46.7560   29.1770 N.am  108  TYR108     -0.1976
     49  CA        94.0810   46.2510   28.0970 C.3   108  TYR108      0.1639
     50  C         93.0430   47.2900   27.6830 C.2   108  TYR108      0.2290
     51  O         92.8380   47.5390   26.4930 O.2   108  TYR108     -0.2864
     52  CB        93.3840   44.9530   28.5090 C.3   108  TYR108      0.0560
     53  CG        94.3260   43.8170   28.8360 C.ar  108  TYR108     -0.0198
     54  CD1       95.5110   43.6440   28.1310 C.ar  108  TYR108     -0.0009
     55  CD2       94.0180   42.9030   29.8370 C.ar  108  TYR108     -0.0009
     56  CE1       96.3740   42.6000   28.4250 C.ar  108  TYR108      0.0417
     57  CE2       94.8710   41.8550   30.1380 C.ar  108  TYR108      0.0417
     58  CZ        96.0480   41.7080   29.4290 C.ar  108  TYR108      0.1957
     59  OH        96.9000   40.6660   29.7250 O.3   108  TYR108     -0.2866
     60  N         94.6950   49.6760   25.4820 N.3   111  ALA111     -0.1245
     61  CA        94.8960   49.1360   24.1450 C.3   111  ALA111      0.1562
     62  C         93.6150   49.2250   23.3190 C.2   111  ALA111      0.2260
     63  O         93.6270   49.7290   22.1970 O.2   111  ALA111     -0.2867
     64  CB        95.3870   47.6990   24.2210 C.3   111  ALA111      0.0290
     65  N         92.9120   52.7440   22.4860 N.3   114  LEU114     -0.1231
     66  CA        93.9040   53.2450   21.5480 C.3   114  LEU114      0.1693
     67  C         93.7040   52.6350   20.1660 C.2   114  LEU114      0.2592
     68  O         93.8290   53.3250   19.1550 O.2   114  LEU114     -0.2718
     69  CB        95.3180   52.9750   22.0630 C.3   114  LEU114      0.0284
     70  CG        96.4470   53.7010   21.3300 C.3   114  LEU114      0.0019
     71  CD1       96.0490   55.1350   21.0130 C.3   114  LEU114      0.0001
     72  CD2       97.7270   53.6630   22.1470 C.3   114  LEU114      0.0001
     73  N         93.3850   51.3440   20.1290 N.am  115  TRP115     -0.1976
     74  CA        93.1360   50.6500   18.8680 C.3   115  TRP115      0.1640
     75  C         91.9320   51.2270   18.1200 C.2   115  TRP115      0.2290
     76  O         91.9130   51.2460   16.8900 O.2   115  TRP115     -0.2864
     77  CB        92.9590   49.1470   19.0930 C.3   115  TRP115      0.0576
     78  CG        94.2590   48.4020   19.2500 C.ar  115  TRP115      0.0006
     79  CD1       94.7440   47.8240   20.3910 C.ar  115  TRP115      0.0946
     80  CD2       95.2370   48.1530   18.2300 C.ar  115  TRP115      0.0152
     81  NE1       95.9600   47.2320   20.1430 N.ar  115  TRP115     -0.2442
     82  CE2       96.2850   47.4200   18.8250 C.ar  115  TRP115      0.0810
     83  CE3       95.3270   48.4790   16.8710 C.ar  115  TRP115      0.0012
     84  CZ2       97.4100   47.0080   18.1090 C.ar  115  TRP115      0.0191
     85  CZ3       96.4460   48.0690   16.1620 C.ar  115  TRP115      0.0001
     86  CH2       97.4710   47.3420   16.7820 C.ar  115  TRP115      0.0015
     87  N         92.9890   54.2590   16.2820 N.3   118  VAL118     -0.1245
     88  CA        93.7370   53.8190   15.1110 C.3   118  VAL118      0.1561
     89  C         92.8040   53.3120   14.0140 C.2   118  VAL118      0.2260
     90  O         92.9870   53.6210   12.8360 O.2   118  VAL118     -0.2867
     91  CB        94.7670   52.7330   15.4740 C.3   118  VAL118      0.0252
     92  CG1       95.4170   52.1710   14.2150 C.3   118  VAL118      0.0019
     93  CG2       95.8180   53.2980   16.4220 C.3   118  VAL118      0.0019
@<TRIPOS>BOND
     1    90    89    2
     2    89    88    1
     3    92    91    1
     4    88    91    1
     5    88    87    1
     6    91    93    1
     7    85    86   ar
     8    85    83   ar
     9    86    84   ar
    10    83    80   ar
    11    76    75    2
    12    84    82   ar
    13    75    74    1
    14    80    82   ar
    15    80    78   ar
    16    82    81   ar
    17    74    77    1
    18    74    73    1
    19    77    78    1
    20    16    15    2
    21    68    67    2
    22    78    79   ar
    23    18    19    1
    24    18    20    1
    25    18    17    1
    26    14    15    1
    27    14    17    1
    28    14    13    1
    29    73    67   am
    30    81    79   ar
    31    67    66    1
    32    71    70    1
    33    70    69    1
    34    70    72    1
    35    66    69    1
    36    66    65    1
    37    63    62    2
    38     4     3    2
    39    62    61    1
    40     9     7   ar
    41     9    11   ar
    42     7     6   ar
    43    61    64    1
    44    61    60    1
    45     3     2    1
    46    12    11    1
    47     2     5    1
    48     2     1    1
    49    11    10   ar
    50     6     5    1
    51     6     8   ar
    52    10     8   ar
    53    51    50    2
    54    50    49    1
    55    43    42    2
    56    49    52    1
    57    49    48    1
    58    54    56   ar
    59    54    53   ar
    60    56    58   ar
    61    52    53    1
    62    46    45    1
    63    53    55   ar
    64    42    48   am
    65    42    41    1
    66    45    47    1
    67    45    44    1
    68    58    59    1
    69    58    57   ar
    70    55    57   ar
    71    41    44    1
    72    41    40    1
    73    35    34    2
    74    31    29    1
    75    39    37    1
    76    34    33    1
    77    33    36    1
    78    33    32    1
    79    28    29    2
    80    28    27    1
    81    29    30    1
    82    24    23    2
    83    36    37    1
    84    37    38    1
    85    27    26    1
    86    26    25    1
    87    23    32   am
    88    23    22    1
    89    25    22    1
    90    22    21    1
