@<TRIPOS>MOLECULE
tmp/3b2dB01.pdb
 93 87 0 0 0
SMALL
GASTEIGER

@<TRIPOS>ATOM
      1  N         39.9530  -18.0090  -65.5210 N.3   305  VAL305     -0.1245
      2  CA        39.1920  -16.8690  -64.9780 C.3   305  VAL305      0.1561
      3  C         40.0510  -15.6200  -64.7020 C.2   305  VAL305      0.2260
      4  O         39.8580  -14.9270  -63.7020 O.2   305  VAL305     -0.2867
      5  CB        38.3470  -17.2610  -63.7250 C.3   305  VAL305      0.0252
      6  CG1       37.2070  -16.2700  -63.5050 C.3   305  VAL305      0.0019
      7  CG2       37.7870  -18.6760  -63.8540 C.3   305  VAL305      0.0019
      8  N         40.8340  -21.5200  -68.6780 N.3   328  ARG328     -0.1231
      9  CA        39.4130  -21.7050  -68.9050 C.3   328  ARG328      0.1694
     10  C         38.5970  -20.5160  -68.3870 C.2   328  ARG328      0.2593
     11  O         38.7930  -20.0500  -67.2600 O.2   328  ARG328     -0.2718
     12  CB        38.9630  -23.0110  -68.2470 C.3   328  ARG328      0.0321
     13  CG        37.4940  -23.3380  -68.4310 C.3   328  ARG328      0.0489
     14  CD        37.0990  -24.5690  -67.6340 C.3   328  ARG328      0.2205
     15  NE        37.5140  -25.8090  -68.2910 N.pl3 328  ARG328     -0.0865
     16  CZ        37.3190  -27.0270  -67.7920 C.cat 328  ARG328      0.5346
     17  NH1       36.7180  -27.1850  -66.6180 N.pl3 328  ARG328      0.1354
     18  NH2       37.7290  -28.0910  -68.4730 N.pl3 328  ARG328      0.1354
     19  N         37.6870  -20.0310  -69.2240 N.am  329  GLY329     -0.1942
     20  CA        36.7590  -18.9790  -68.8350 C.3   329  GLY329      0.2014
     21  C         37.4190  -17.6580  -68.5100 C.2   329  GLY329      0.2638
     22  O         37.1530  -17.0700  -67.4590 O.2   329  GLY329     -0.2714
     23  N         38.2900  -17.2030  -69.4090 N.am  330  ASN330     -0.1972
     24  CA        38.8860  -15.8740  -69.3260 C.3   330  ASN330      0.1688
     25  C         37.7670  -14.8340  -69.2610 C.2   330  ASN330      0.2292
     26  O         36.7630  -14.9570  -69.9710 O.2   330  ASN330     -0.2864
     27  CB        39.7830  -15.6360  -70.5450 C.3   330  ASN330      0.1181
     28  CG        40.7770  -14.5050  -70.3400 C.2   330  ASN330      0.2629
     29  OD1       41.7380  -14.6290  -69.5750 O.2   330  ASN330     -0.2716
     30  ND2       40.5650  -13.4020  -71.0460 N.am  330  ASN330     -0.0877
     31  N         38.9530  -23.7100  -73.1750 N.3   353  SER353     -0.1202
     32  CA        37.4980  -23.6300  -73.2800 C.3   353  SER353      0.2020
     33  C         36.9270  -22.3770  -72.6190 C.2   353  SER353      0.2618
     34  O         37.5360  -21.8140  -71.7110 O.2   353  SER353     -0.2717
     35  CB        36.8400  -24.8800  -72.6830 C.3   353  SER353      0.2103
     36  OG        37.0130  -24.9310  -71.2770 O.3   353  SER353     -0.2182
     37  N         35.7530  -21.9600  -73.0910 N.am  354  HIS354     -0.1975
     38  CA        34.9740  -20.8580  -72.5060 C.3   354  HIS354      0.1656
     39  C         35.6320  -19.5060  -72.5610 C.2   354  HIS354      0.2291
     40  O         35.4100  -18.6700  -71.6830 O.2   354  HIS354     -0.2864
     41  CB        34.5580  -21.1860  -71.0730 C.3   354  HIS354      0.0771
     42  CG        33.2030  -21.8420  -70.9650 C.ar  354  HIS354      0.0820
     43  ND1       32.0550  -21.1870  -71.2450 N.ar  354  HIS354     -0.2267
     44  CD2       32.8400  -23.1290  -70.5740 C.ar  354  HIS354      0.1154
     45  CE1       31.0110  -22.0150  -71.0550 C.ar  354  HIS354      0.1986
     46  NE2       31.4930  -23.2050  -70.6430 N.ar  354  HIS354     -0.2212
     47  N         46.0270  -33.7870  -75.5840 N.3   375  THR375     -0.1218
     48  CA        44.6660  -33.3770  -75.2530 C.3   375  THR375      0.1862
     49  C         44.4670  -31.8890  -75.5290 C.2   375  THR375      0.2287
     50  O         45.1940  -31.0480  -75.0010 O.2   375  THR375     -0.2866
     51  CB        44.3240  -33.7100  -73.7850 C.3   375  THR375      0.1770
     52  OG1       44.5330  -35.1100  -73.5550 O.3   375  THR375     -0.2211
     53  CG2       42.8740  -33.3550  -73.4620 C.3   375  THR375      0.0375
     54  N         41.4070  -28.9550  -75.5910 N.3   377  ASN377     -0.1240
     55  CA        40.0460  -28.4920  -75.3560 C.3   377  ASN377      0.1653
     56  C         39.8370  -27.0870  -75.9060 C.2   377  ASN377      0.2266
     57  O         40.4200  -26.1240  -75.4030 O.2   377  ASN377     -0.2867
     58  CB        39.7180  -28.5280  -73.8650 C.3   377  ASN377      0.1155
     59  CG        38.2260  -28.5470  -73.5930 C.2   377  ASN377      0.2627
     60  OD1       37.4170  -28.0870  -74.4040 O.2   377  ASN377     -0.2716
     61  ND2       37.8530  -29.0810  -72.4410 N.am  377  ASN377     -0.0877
     62  N         36.4250  -26.1950  -76.7600 N.3   379  SER379     -0.1202
     63  CA        34.9640  -26.1330  -76.7210 C.3   379  SER379      0.2020
     64  C         34.4630  -24.8200  -76.1130 C.2   379  SER379      0.2618
     65  O         35.2250  -24.1070  -75.4700 O.2   379  SER379     -0.2717
     66  CB        34.4160  -27.3210  -75.9310 C.3   379  SER379      0.2103
     67  OG        34.7660  -27.2120  -74.5660 O.3   379  SER379     -0.2182
     68  N         33.1840  -24.5110  -76.3260 N.am  380  HIS380     -0.1975
     69  CA        32.5430  -23.3090  -75.7680 C.3   380  HIS380      0.1656
     70  C         33.2170  -22.0220  -76.1520 C.2   380  HIS380      0.2291
     71  O         33.3530  -21.1090  -75.3370 O.2   380  HIS380     -0.2864
     72  CB        32.3960  -23.4130  -74.2480 C.3   380  HIS380      0.0771
     73  CG        31.4610  -24.5080  -73.8060 C.ar  380  HIS380      0.0820
     74  ND1       30.1230  -24.3700  -73.8310 N.ar  380  HIS380     -0.2267
     75  CD2       31.7170  -25.7930  -73.3340 C.ar  380  HIS380      0.1154
     76  CE1       29.5490  -25.5040  -73.3920 C.ar  380  HIS380      0.1986
     77  NE2       30.5260  -26.3740  -73.0880 N.ar  380  HIS380     -0.2212
     78  N         42.9280  -36.6290  -78.0780 N.3   399  LEU399     -0.1245
     79  CA        41.5770  -36.1730  -77.7670 C.3   399  LEU399      0.1561
     80  C         41.4000  -34.7040  -78.1600 C.2   399  LEU399      0.2260
     81  O         42.1560  -33.8370  -77.7180 O.2   399  LEU399     -0.2867
     82  CB        41.2700  -36.3910  -76.2810 C.3   399  LEU399      0.0270
     83  CG        39.8600  -36.0720  -75.7680 C.3   399  LEU399      0.0019
     84  CD1       39.5030  -36.9620  -74.5890 C.3   399  LEU399      0.0001
     85  CD2       39.7160  -34.6020  -75.3970 C.3   399  LEU399      0.0001
     86  N         38.4900  -31.7650  -78.1550 N.3   401  ASP401     -0.1239
     87  CA        37.1750  -31.3000  -77.7330 C.3   401  ASP401      0.1674
     88  C         36.8360  -29.9650  -78.3960 C.2   401  ASP401      0.2266
     89  O         37.4730  -28.9440  -78.1300 O.2   401  ASP401     -0.2867
     90  CB        37.1070  -31.1900  -76.2080 C.3   401  ASP401      0.1410
     91  CG        35.6820  -31.2400  -75.6770 C.2   401  ASP401      0.3668
     92  OD1       34.7310  -31.0400  -76.4620 O.co2 401  ASP401     -0.2456
     93  OD2       35.5090  -31.4840  -74.4640 O.co2 401  ASP401     -0.2456
@<TRIPOS>BOND
     1    88    89    2
     2    88    87    1
     3    80    79    1
     4    80    81    2
     5    86    87    1
     6    78    79    1
     7    79    82    1
     8    87    90    1
     9    62    63    1
    10    63    64    1
    11    63    66    1
    12    92    91   ar
    13    68    64   am
    14    68    69    1
    15    82    83    1
    16    90    91    1
    17    70    69    1
    18    70    71    2
    19    64    65    2
    20    66    67    1
    21    56    57    2
    22    56    55    1
    23    83    85    1
    24    83    84    1
    25    69    72    1
    26    91    93   ar
    27    54    55    1
    28    47    48    1
    29    49    48    1
    30    49    50    2
    31    55    58    1
    32    48    51    1
    33    60    59    2
    34    72    73    1
    35    58    59    1
    36    74    73   ar
    37    74    76   ar
    38    73    75   ar
    39    51    52    1
    40    51    53    1
    41    59    61   am
    42    76    77   ar
    43    75    77   ar
    44    32    31    1
    45    32    35    1
    46    32    33    1
    47    37    33   am
    48    37    38    1
    49    35    36    1
    50    33    34    2
    51    39    38    1
    52    39    40    2
    53    38    41    1
    54    43    45   ar
    55    43    42   ar
    56    41    42    1
    57    45    46   ar
    58    30    28   am
    59    42    44   ar
    60    46    44   ar
    61    27    28    1
    62    27    24    1
    63    28    29    2
    64    26    25    2
    65    23    24    1
    66    23    21   am
    67    24    25    1
    68    19    20    1
    69    19    10   am
    70     9     8    1
    71     9    10    1
    72     9    12    1
    73    20    21    1
    74    21    22    2
    75    18    16    1
    76    13    12    1
    77    13    14    1
    78    10    11    2
    79    15    16    2
    80    15    14    1
    81    16    17    1
    82     1     2    1
    83     2     3    1
    84     2     5    1
    85     3     4    2
    86     7     5    1
    87     5     6    1
