@<TRIPOS>MOLECULE
tmp/3b2dD00.pdb
 138 135 0 0 0
SMALL
GASTEIGER

@<TRIPOS>ATOM
      1  N         29.2450  -28.7860  -55.1480 N.3    55  GLU55      -0.1245
      2  CA        28.9330  -28.2750  -56.4750 C.3    55  GLU55       0.1567
      3  C         27.5000  -27.7580  -56.4870 C.2    55  GLU55       0.2260
      4  O         26.5540  -28.5170  -56.2600 O.2    55  GLU55      -0.2867
      5  CB        29.1260  -29.3590  -57.5280 C.3    55  GLU55       0.0388
      6  CG        30.5840  -29.6890  -57.7920 C.3    55  GLU55       0.1160
      7  CD        30.7980  -31.1610  -58.0780 C.2    55  GLU55       0.3649
      8  OE1       30.4780  -31.6060  -59.2030 O.co2  55  GLU55      -0.2457
      9  OE2       31.2930  -31.8720  -57.1750 O.co2  55  GLU55      -0.2457
     10  N         24.7420  -25.0090  -58.5830 N.3    57  PHE57      -0.1241
     11  CA        24.4530  -24.2230  -59.7780 C.3    57  PHE57       0.1605
     12  C         23.1380  -23.4660  -59.6300 C.2    57  PHE57       0.2264
     13  O         22.2140  -23.9400  -58.9690 O.2    57  PHE57      -0.2867
     14  CB        24.4140  -25.1200  -61.0180 C.3    57  PHE57       0.0534
     15  CG        25.6280  -25.9900  -61.1770 C.ar   57  PHE57      -0.0203
     16  CD1       26.7580  -25.5170  -61.8290 C.ar   57  PHE57      -0.0042
     17  CD2       25.6400  -27.2900  -60.6740 C.ar   57  PHE57      -0.0042
     18  CE1       27.8790  -26.3170  -61.9710 C.ar   57  PHE57      -0.0003
     19  CE2       26.7570  -28.0960  -60.8140 C.ar   57  PHE57      -0.0003
     20  CZ        27.8780  -27.6050  -61.4630 C.ar   57  PHE57      -0.0000
     21  N         19.9380  -21.5630  -61.7060 N.3    59  ASP59      -0.1239
     22  CA        19.1730  -21.3340  -62.9310 C.3    59  ASP59       0.1674
     23  C         18.2660  -20.1240  -62.7470 C.2    59  ASP59       0.2266
     24  O         17.4990  -20.0570  -61.7800 O.2    59  ASP59      -0.2867
     25  CB        18.3330  -22.5640  -63.2940 C.3    59  ASP59       0.1410
     26  CG        19.0520  -23.5180  -64.2370 C.2    59  ASP59       0.3668
     27  OD1       20.2900  -23.4210  -64.3850 O.co2  59  ASP59      -0.2456
     28  OD2       18.3730  -24.3790  -64.8340 O.co2  59  ASP59      -0.2456
     29  N         19.5810  -18.0420  -67.9930 N.3    72  PHE72      -0.1227
     30  CA        20.9910  -18.3940  -67.8150 C.3    72  PHE72       0.1736
     31  C         21.2470  -19.3790  -66.6830 C.2    72  PHE72       0.2596
     32  O         20.4970  -19.4470  -65.7130 O.2    72  PHE72      -0.2718
     33  CB        21.9100  -17.1560  -67.7280 C.3    72  PHE72       0.0547
     34  CG        21.9070  -16.4610  -66.3930 C.ar   72  PHE72      -0.0202
     35  CD1       21.0810  -15.3690  -66.1680 C.ar   72  PHE72      -0.0042
     36  CD2       22.7670  -16.8650  -65.3780 C.ar   72  PHE72      -0.0042
     37  CE1       21.0860  -14.7110  -64.9490 C.ar   72  PHE72      -0.0003
     38  CE2       22.7770  -16.2140  -64.1550 C.ar   72  PHE72      -0.0003
     39  CZ        21.9350  -15.1340  -63.9400 C.ar   72  PHE72      -0.0000
     40  N         22.3030  -20.1630  -66.8490 N.am   73  SER73      -0.1938
     41  CA        22.8220  -21.0050  -65.7900 C.3    73  SER73       0.2055
     42  C         24.1570  -20.4300  -65.3580 C.2    73  SER73       0.2643
     43  O         24.8970  -19.8730  -66.1690 O.2    73  SER73      -0.2714
     44  CB        22.9890  -22.4410  -66.2740 C.3    73  SER73       0.2130
     45  OG        21.7360  -22.9810  -66.6470 O.3    73  SER73      -0.2179
     46  N         24.4540  -20.5490  -64.0720 N.am   74  TYR74      -0.1960
     47  CA        25.7070  -20.0500  -63.5350 C.3    74  TYR74       0.1756
     48  C         26.1540  -20.9510  -62.3980 C.2    74  TYR74       0.2461
     49  O         25.3370  -21.3670  -61.5760 O.2    74  TYR74      -0.2730
     50  CB        25.5430  -18.6080  -63.0530 C.3    74  TYR74       0.0574
     51  CG        26.8410  -17.8500  -62.8930 C.ar   74  TYR74      -0.0198
     52  CD1       27.6110  -17.4990  -64.0080 C.ar   74  TYR74      -0.0009
     53  CD2       27.2920  -17.4610  -61.6330 C.ar   74  TYR74      -0.0009
     54  CE1       28.7990  -16.7990  -63.8690 C.ar   74  TYR74       0.0417
     55  CE2       28.4800  -16.7570  -61.4830 C.ar   74  TYR74       0.0417
     56  CZ        29.2280  -16.4290  -62.6030 C.ar   74  TYR74       0.1957
     57  OH        30.4100  -15.7300  -62.4660 O.3    74  TYR74      -0.2866
     58  N         27.4510  -21.2870  -62.3600 N.am   75  PRO75      -0.2727
     59  CA        27.9000  -22.0480  -61.2080 C.3    75  PRO75       0.1402
     60  C         28.2260  -21.1240  -60.0450 C.2    75  PRO75       0.2269
     61  O         28.8650  -20.0850  -60.2320 O.2    75  PRO75      -0.2865
     62  CB        29.1470  -22.7740  -61.7170 C.3    75  PRO75       0.0296
     63  CG        29.6000  -22.0200  -62.9190 C.3    75  PRO75       0.0237
     64  CD        28.5160  -21.0780  -63.3540 C.3    75  PRO75       0.0939
     65  N         31.9360  -24.8540  -57.1900 N.3    78  GLU78      -0.1245
     66  CA        32.5400  -25.8770  -58.0460 C.3    78  GLU78       0.1567
     67  C         33.7940  -26.4720  -57.4130 C.2    78  GLU78       0.2260
     68  O         34.5000  -25.7980  -56.6620 O.2    78  GLU78      -0.2867
     69  CB        32.9060  -25.2940  -59.4110 C.3    78  GLU78       0.0388
     70  CG        31.7620  -25.2090  -60.4070 C.3    78  GLU78       0.1160
     71  CD        32.2180  -24.7290  -61.7720 C.2    78  GLU78       0.3649
     72  OE1       32.9970  -23.7510  -61.8420 O.co2  78  GLU78      -0.2457
     73  OE2       31.7950  -25.3280  -62.7820 O.co2  78  GLU78      -0.2457
     74  N         36.4690  -24.4010  -58.6370 N.3    81  LEU81      -0.1245
     75  CA        36.2910  -22.9890  -58.2870 C.3    81  LEU81       0.1561
     76  C         35.1510  -22.7390  -57.2860 C.2    81  LEU81       0.2260
     77  O         34.0030  -22.5170  -57.6860 O.2    81  LEU81      -0.2867
     78  CB        36.0600  -22.1510  -59.5550 C.3    81  LEU81       0.0270
     79  CG        36.4230  -20.6580  -59.6420 C.3    81  LEU81       0.0019
     80  CD1       35.4740  -19.9810  -60.6210 C.3    81  LEU81       0.0001
     81  CD2       36.4140  -19.9170  -58.3060 C.3    81  LEU81       0.0001
     82  N         33.4280  -20.1700  -55.4120 N.3    83  LYS83      -0.1245
     83  CA        33.3380  -18.7080  -55.4440 C.3    83  LYS83       0.1561
     84  C         33.0700  -18.0810  -54.0750 C.2    83  LYS83       0.2260
     85  O         33.5140  -16.9670  -53.8100 O.2    83  LYS83      -0.2867
     86  CB        32.2720  -18.2460  -56.4460 C.3    83  LYS83       0.0271
     87  CG        32.6510  -18.4290  -57.9050 C.3    83  LYS83       0.0035
     88  CD        31.6490  -17.7390  -58.8180 C.3    83  LYS83       0.0206
     89  CE        31.9020  -18.0550  -60.2860 C.3    83  LYS83       0.1093
     90  NZ        31.6340  -19.4850  -60.6140 N.3    83  LYS83      -0.1314
     91  N         20.7510  -25.9950  -57.5800 N.3   120  TYR120     -0.1227
     92  CA        20.8090  -27.4560  -57.6910 C.3   120  TYR120      0.1736
     93  C         22.2310  -28.0050  -57.6950 C.2   120  TYR120      0.2596
     94  O         23.1780  -27.3000  -58.0440 O.2   120  TYR120     -0.2718
     95  CB        20.0490  -27.9410  -58.9360 C.3   120  TYR120      0.0548
     96  CG        20.5070  -27.3070  -60.2320 C.ar  120  TYR120     -0.0200
     97  CD1       19.9990  -26.0730  -60.6430 C.ar  120  TYR120     -0.0009
     98  CD2       21.4470  -27.9370  -61.0480 C.ar  120  TYR120     -0.0009
     99  CE1       20.4150  -25.4870  -61.8270 C.ar  120  TYR120      0.0417
    100  CE2       21.8680  -27.3580  -62.2350 C.ar  120  TYR120      0.0417
    101  CZ        21.3480  -26.1340  -62.6170 C.ar  120  TYR120      0.1957
    102  OH        21.7570  -25.5440  -63.7870 O.3   120  TYR120     -0.2866
    103  N         22.3580  -29.2720  -57.3120 N.am  121  THR121     -0.1939
    104  CA        23.6440  -29.9660  -57.2680 C.3   121  THR121      0.2028
    105  C         23.9560  -30.6630  -58.5920 C.2   121  THR121      0.2642
    106  O         23.2230  -30.5060  -59.5680 O.2   121  THR121     -0.2714
    107  CB        23.6880  -31.0080  -56.1300 C.3   121  THR121      0.1808
    108  OG1       22.6660  -31.9920  -56.3320 O.3   121  THR121     -0.2208
    109  CG2       23.4950  -30.3410  -54.7740 C.3   121  THR121      0.0379
    110  N         25.0430  -31.4370  -58.6030 N.am  122  GLU122     -0.1963
    111  CA        25.5230  -32.1670  -59.7860 C.3   122  GLU122      0.1733
    112  C         24.5060  -33.1880  -60.2890 C.2   122  GLU122      0.2616
    113  O         24.4110  -33.4360  -61.4890 O.2   122  GLU122     -0.2715
    114  CB        26.8340  -32.9000  -59.4810 C.3   122  GLU122      0.0429
    115  CG        27.5090  -32.5180  -58.1710 C.3   122  GLU122      0.1163
    116  CD        27.0700  -33.3770  -56.9920 C.2   122  GLU122      0.3649
    117  OE1       27.3380  -34.6020  -57.0030 O.co2 122  GLU122     -0.2457
    118  OE2       26.4770  -32.8230  -56.0430 O.co2 122  GLU122     -0.2457
    119  N         23.7590  -33.7830  -59.3610 N.am  123  LYS123     -0.1963
    120  CA        22.7390  -34.7790  -59.6880 C.3   123  LYS123      0.1728
    121  C         21.4030  -34.1240  -60.0450 C.2   123  LYS123      0.2616
    122  O         20.4230  -34.8150  -60.3370 O.2   123  LYS123     -0.2715
    123  CB        22.5620  -35.7530  -58.5200 C.3   123  LYS123      0.0311
    124  CG        23.8170  -36.5370  -58.1710 C.3   123  LYS123      0.0038
    125  CD        23.9400  -36.7070  -56.6670 C.3   123  LYS123      0.0206
    126  CE        25.3310  -37.1690  -56.2740 C.3   123  LYS123      0.1093
    127  NZ        25.5550  -36.9990  -54.8110 N.3   123  LYS123     -0.1314
    128  N         21.3900  -32.7900  -60.0320 N.am  124  ARG124     -0.1977
    129  CA        20.2020  -31.9640  -60.2700 C.3   124  ARG124      0.1597
    130  C         19.2060  -32.0890  -59.1110 C.2   124  ARG124      0.2287
    131  O         17.9900  -31.9850  -59.3050 O.2   124  ARG124     -0.2864
    132  CB        19.5490  -32.2740  -61.6290 C.3   124  ARG124      0.0334
    133  CG        19.2500  -31.0490  -62.4940 C.3   124  ARG124      0.0492
    134  CD        18.0930  -30.2030  -61.9730 C.3   124  ARG124      0.2205
    135  NE        18.0440  -28.8850  -62.6080 N.pl3 124  ARG124     -0.0865
    136  CZ        17.2270  -27.8960  -62.2420 C.cat 124  ARG124      0.5346
    137  NH1       17.2670  -26.7390  -62.8840 N.pl3 124  ARG124      0.1354
    138  NH2       16.3730  -28.0540  -61.2370 N.pl3 124  ARG124      0.1354
@<TRIPOS>BOND
     1    29    30    1
     2    30    33    1
     3    30    31    1
     4    33    34    1
     5    40    31   am
     6    40    41    1
     7    31    32    2
     8    45    44    1
     9    34    35   ar
    10    34    36   ar
    11    44    41    1
    12    43    42    2
    13    35    37   ar
    14    41    42    1
    15    36    38   ar
    16    42    46   am
    17    37    39   ar
    18    28    26   ar
    19    27    26   ar
    20    26    25    1
    21    38    39   ar
    22    46    47    1
    23    52    54   ar
    24    52    51   ar
    25    54    56   ar
    26   102   101    1
    27    47    50    1
    28    47    48    1
    29    64    63    1
    30    64    58    1
    31    25    22    1
    32    50    51    1
    33    22    23    1
    34    22    21    1
    35    63    62    1
    36    51    53   ar
    37   137   136    1
    38    73    71   ar
    39    23    24    2
    40   101   100   ar
    41   101    99   ar
    42   135   136    2
    43   135   134    1
    44    56    57    1
    45    56    55   ar
    46   133   134    1
    47   133   132    1
    48    48    58   am
    49    48    49    2
    50    58    59    1
    51   136   138    1
    52   100    98   ar
    53    18    16   ar
    54    18    20   ar
    55    72    71   ar
    56    16    15   ar
    57    99    97   ar
    58    71    70    1
    59    62    59    1
    60    53    55   ar
    61   132   129    1
    62   113   112    2
    63    20    19   ar
    64    59    60    1
    65    15    14    1
    66    15    17   ar
    67    98    96   ar
    68    14    11    1
    69    19    17   ar
    70    97    96   ar
    71    80    79    1
    72    90    89    1
    73    70    69    1
    74   122   121    2
    75   112   111    1
    76   112   119   am
    77    89    88    1
    78   129   128    1
    79   129   130    1
    80    61    60    2
    81    96    95    1
    82   121   128   am
    83   121   120    1
    84   111   114    1
    85   111   110    1
    86    11    12    1
    87    11    10    1
    88   120   119    1
    89   120   123    1
    90    79    78    1
    91    79    81    1
    92    12    13    2
    93   106   105    2
    94    78    75    1
    95   114   115    1
    96    69    66    1
    97   131   130    2
    98     8     7   ar
    99    95    92    1
   100    88    87    1
   101    74    75    1
   102   110   105   am
   103   105   104    1
   104   123   124    1
   105    75    76    1
   106   124   125    1
   107   115   116    1
   108     7     6    1
   109     7     9   ar
   110    66    67    1
   111    66    65    1
   112    94    93    2
   113    87    86    1
   114     6     5    1
   115    93    92    1
   116    93   103   am
   117    92    91    1
   118    77    76    2
   119     5     2    1
   120    67    68    2
   121   103   104    1
   122   104   107    1
   123   117   116   ar
   124   116   118   ar
   125   125   126    1
   126     3     2    1
   127     3     4    2
   128     2     1    1
   129    86    83    1
   130   108   107    1
   131   126   127    1
   132   107   109    1
   133    83    82    1
   134    83    84    1
   135    84    85    2
