@<TRIPOS>MOLECULE
tmp/3b2dA00.pdb
 107 100 0 0 0
SMALL
GASTEIGER

@<TRIPOS>ATOM
      1  N         30.4400  -13.7380   12.0030 N.3   379  SER379     -0.1202
      2  CA        29.5990  -14.9280   11.9200 C.3   379  SER379      0.2020
      3  C         30.3550  -16.1620   11.4140 C.2   379  SER379      0.2618
      4  O         31.4030  -16.0390   10.7750 O.2   379  SER379     -0.2717
      5  CB        28.3850  -14.6510   11.0300 C.3   379  SER379      0.2103
      6  OG        28.7680  -14.5040    9.6750 O.3   379  SER379     -0.2182
      7  N         29.8150  -17.3440   11.7170 N.am  380  HIS380     -0.1975
      8  CA        30.3390  -18.6280   11.2280 C.3   380  HIS380      0.1656
      9  C         31.7780  -18.8900   11.5970 C.2   380  HIS380      0.2291
     10  O         32.5720  -19.3720   10.7810 O.2   380  HIS380     -0.2864
     11  CB        30.1250  -18.7640    9.7190 C.3   380  HIS380      0.0771
     12  CG        28.6780  -18.9040    9.3190 C.ar  380  HIS380      0.0820
     13  ND1       28.0360  -20.0880    9.3300 N.ar  380  HIS380     -0.2267
     14  CD2       27.7520  -17.9570    8.8890 C.ar  380  HIS380      0.1154
     15  CE1       26.7660  -19.9100    8.9280 C.ar  380  HIS380      0.1986
     16  NE2       26.5930  -18.6050    8.6600 N.ar  380  HIS380     -0.2212
     17  N         25.8910   -2.1920   13.0610 N.3   399  LEU399     -0.1245
     18  CA        25.4880   -3.5640   12.7720 C.3   399  LEU399      0.1561
     19  C         26.5470   -4.5450   13.2670 C.2   399  LEU399      0.2260
     20  O         27.7280   -4.4100   12.9370 O.2   399  LEU399     -0.2867
     21  CB        25.2470   -3.7430   11.2670 C.3   399  LEU399      0.0270
     22  CG        24.4200   -4.9370   10.7670 C.3   399  LEU399      0.0019
     23  CD1       23.8740   -4.6530    9.3760 C.3   399  LEU399      0.0001
     24  CD2       25.2110   -6.2400   10.7720 C.3   399  LEU399      0.0001
     25  N         27.0990   -8.6760   13.3470 N.3   401  ASP401     -0.1239
     26  CA        26.6750  -10.0230   12.9750 C.3   401  ASP401      0.1674
     27  C         27.5900  -11.0710   13.6230 C.2   401  ASP401      0.2266
     28  O         28.7930  -11.1310   13.3310 O.2   401  ASP401     -0.2867
     29  CB        26.6380  -10.1750   11.4450 C.3   401  ASP401      0.1410
     30  CG        25.8640  -11.4180   10.9800 C.2   401  ASP401      0.3668
     31  OD1       25.4470  -12.2400   11.8230 O.co2 401  ASP401     -0.2456
     32  OD2       25.6760  -11.5740    9.7540 O.co2 401  ASP401     -0.2456
     33  N         26.2520  -14.4220   13.9740 N.3   403  ALA403     -0.1231
     34  CA        25.4330  -15.6150   13.7170 C.3   403  ALA403      0.1694
     35  C         26.2340  -16.9100   13.6000 C.2   403  ALA403      0.2592
     36  O         27.2420  -16.9540   12.9020 O.2   403  ALA403     -0.2718
     37  CB        24.5930  -15.4060   12.4670 C.3   403  ALA403      0.0304
     38  N         25.7680  -17.9540   14.2900 N.am  404  PHE404     -0.1976
     39  CA        26.3630  -19.3030   14.2580 C.3   404  PHE404      0.1639
     40  C         27.7460  -19.3980   14.9160 C.2   404  PHE404      0.2290
     41  O         28.4230  -20.4280   14.8250 O.2   404  PHE404     -0.2864
     42  CB        26.4100  -19.8660   12.8270 C.3   404  PHE404      0.0560
     43  CG        25.0630  -19.9930   12.1740 C.ar  404  PHE404     -0.0200
     44  CD1       24.3050  -21.1490   12.3330 C.ar  404  PHE404     -0.0042
     45  CD2       24.5550  -18.9640   11.3830 C.ar  404  PHE404     -0.0042
     46  CE1       23.0590  -21.2690   11.7270 C.ar  404  PHE404     -0.0003
     47  CE2       23.3120  -19.0770   10.7750 C.ar  404  PHE404     -0.0003
     48  CZ        22.5630  -20.2320   10.9470 C.ar  404  PHE404     -0.0000
     49  N         21.2940   -3.1350   14.7540 N.3   424  VAL424     -0.1245
     50  CA        21.0300   -4.5100   14.3470 C.3   424  VAL424      0.1561
     51  C         22.0110   -5.4630   15.0240 C.2   424  VAL424      0.2260
     52  O         23.2250   -5.2460   14.9790 O.2   424  VAL424     -0.2867
     53  CB        21.1060   -4.6720   12.8100 C.3   424  VAL424      0.0252
     54  CG1       20.7940   -6.1030   12.4000 C.3   424  VAL424      0.0019
     55  CG2       20.1510   -3.7100   12.1170 C.3   424  VAL424      0.0019
     56  N         22.6030   -9.6510   15.1730 N.3   426  ASN426     -0.1240
     57  CA        22.2870  -11.0210   14.7850 C.3   426  ASN426      0.1653
     58  C         23.0050  -12.0100   15.6980 C.2   426  ASN426      0.2266
     59  O         24.2350  -12.0750   15.7100 O.2   426  ASN426     -0.2867
     60  CB        22.6430  -11.2680   13.3090 C.3   426  ASN426      0.1155
     61  CG        22.0590  -12.5700   12.7670 C.2   426  ASN426      0.2627
     62  OD1       21.8310  -13.5140   13.5220 O.2   426  ASN426     -0.2716
     63  ND2       21.8170  -12.6300   11.4560 N.am  426  ASN426     -0.0877
     64  N         21.8460  -15.4870   16.0060 N.3   428  THR428     -0.1218
     65  CA        21.2810  -16.8120   15.7410 C.3   428  THR428      0.1862
     66  C         22.2780  -17.9500   15.9920 C.2   428  THR428      0.2287
     67  O         23.4280  -17.8770   15.5770 O.2   428  THR428     -0.2866
     68  CB        20.6200  -16.9350   14.3440 C.3   428  THR428      0.1770
     69  OG1       20.1630  -18.2780   14.1610 O.3   428  THR428     -0.2211
     70  CG2       21.5800  -16.6180   13.2280 C.3   428  THR428      0.0375
     71  N         17.1050   -2.0070   17.5500 N.3   447  ARG447     -0.1231
     72  CA        15.7790   -2.1590   16.9470 C.3   447  ARG447      0.1694
     73  C         15.5860   -3.4710   16.1740 C.2   447  ARG447      0.2592
     74  O         14.4710   -3.8060   15.7800 O.2   447  ARG447     -0.2718
     75  CB        15.4490   -0.9550   16.0580 C.3   447  ARG447      0.0321
     76  CG        16.4740   -0.7010   14.9710 C.3   447  ARG447      0.0489
     77  CD        15.9480    0.2290   13.8930 C.3   447  ARG447      0.2205
     78  NE        16.7590    0.1100   12.6850 N.pl3 447  ARG447     -0.0865
     79  CZ        16.5160   -0.7450   11.6950 C.cat 447  ARG447      0.5346
     80  NH1       15.4670   -1.5560   11.7460 N.pl3 447  ARG447      0.1354
     81  NH2       17.3230   -0.7840   10.6450 N.pl3 447  ARG447      0.1354
     82  N         16.6740   -4.2020   15.9650 N.am  448  HIS448     -0.1976
     83  CA        16.6310   -5.4830   15.2690 C.3   448  HIS448      0.1656
     84  C         17.4610   -6.4720   16.0320 C.2   448  HIS448      0.2291
     85  O         18.6840   -6.3260   16.1290 O.2   448  HIS448     -0.2864
     86  CB        17.1540   -5.3320   13.8420 C.3   448  HIS448      0.0771
     87  CG        16.7950   -6.4860   12.9240 C.ar  448  HIS448      0.0820
     88  ND1       16.1300   -6.3080   11.7650 N.ar  448  HIS448     -0.2267
     89  CD2       17.0410   -7.8560   13.0270 C.ar  448  HIS448      0.1154
     90  CE1       15.9540   -7.4970   11.1600 C.ar  448  HIS448      0.1986
     91  NE2       16.5100   -8.4440   11.9340 N.ar  448  HIS448     -0.2212
     92  N         17.9910  -10.7400   16.5290 N.3   450  ASN450     -0.1240
     93  CA        17.7520  -12.1070   16.0980 C.3   450  ASN450      0.1653
     94  C         18.2920  -13.0910   17.1320 C.2   450  ASN450      0.2266
     95  O         19.5010  -13.1740   17.3400 O.2   450  ASN450     -0.2867
     96  CB        18.4230  -12.3410   14.7420 C.3   450  ASN450      0.1155
     97  CG        17.8640  -13.5430   14.0040 C.2   450  ASN450      0.2627
     98  OD1       17.6160  -13.4760   12.8020 O.2   450  ASN450     -0.2716
     99  ND2       17.6670  -14.6470   14.7130 N.am  450  ASN450     -0.0877
    100  N         13.2900  -11.8850   16.5010 N.3   477  ILE477     -0.1245
    101  CA        13.1840  -13.2400   15.9710 C.3   477  ILE477      0.1561
    102  C         13.5260  -14.2570   17.0560 C.2   477  ILE477      0.2260
    103  O         14.6790  -14.3700   17.4800 O.2   477  ILE477     -0.2867
    104  CB        14.0420  -13.4340   14.7010 C.3   477  ILE477      0.0252
    105  CG1       13.4510  -12.6130   13.5430 C.3   477  ILE477      0.0019
    106  CG2       14.1260  -14.9110   14.3270 C.3   477  ILE477      0.0019
    107  CD1       14.3550  -12.4590   12.3360 C.3   477  ILE477      0.0001
@<TRIPOS>BOND
     1    16    14   ar
     2    16    15   ar
     3    14    12   ar
     4    15    13   ar
     5    12    13   ar
     6    12    11    1
     7    23    22    1
     8     6     5    1
     9    11     8    1
    10    32    30   ar
    11    81    79    1
    12    22    24    1
    13    22    21    1
    14    47    48   ar
    15    47    45   ar
    16     4     3    2
    17    10     9    2
    18    48    46   ar
    19    30    29    1
    20    30    31   ar
    21     5     2    1
    22    90    88   ar
    23    90    91   ar
    24     8     9    1
    25     8     7    1
    26    21    18    1
    27    45    43   ar
    28     3     7   am
    29     3     2    1
    30    29    26    1
    31    63    61   am
    32    79    80    1
    33    79    78    2
    34    46    44   ar
    35    88    87   ar
    36     2     1    1
    37    91    89   ar
    38    55    53    1
    39    43    44   ar
    40    43    42    1
    41   107   105    1
    42    54    53    1
    43    37    34    1
    44    78    77    1
    45    61    60    1
    46    61    62    2
    47    18    17    1
    48    18    19    1
    49    98    97    2
    50    53    50    1
    51    42    39    1
    52    36    35    2
    53    87    89   ar
    54    87    86    1
    55    20    19    2
    56    26    25    1
    57    26    27    1
    58    70    68    1
    59    60    57    1
    60    28    27    2
    61   105   104    1
    62    35    34    1
    63    35    38   am
    64    34    33    1
    65    86    83    1
    66    77    76    1
    67    97    99   am
    68    97    96    1
    69    69    68    1
    70    39    38    1
    71    39    40    1
    72   106   104    1
    73    68    65    1
    74    50    49    1
    75    50    51    1
    76   104   101    1
    77    96    93    1
    78    57    56    1
    79    57    58    1
    80    41    40    2
    81    76    75    1
    82    52    51    2
    83    83    82    1
    84    83    84    1
    85    67    66    2
    86    58    59    2
    87    65    66    1
    88    65    64    1
    89    74    73    2
    90    82    73   am
    91   101   100    1
    92   101   102    1
    93    84    85    2
    94    75    72    1
    95    93    92    1
    96    93    94    1
    97    73    72    1
    98    72    71    1
    99   102   103    2
   100    94    95    2
