@<TRIPOS>MOLECULE
tmp/3b2eE00.pdb
 150 144 0 0 0
SMALL
GASTEIGER

@<TRIPOS>ATOM
      1  N         35.6320    0.9940  -30.4970 N.3    21  GLY21      -0.1225
      2  CA        34.7440    0.0320  -29.8710 C.3    21  GLY21       0.1811
      3  C         33.6670    0.6770  -29.0190 C.2    21  GLY21       0.2280
      4  O         33.9710    1.3290  -28.0190 O.2    21  GLY21      -0.2866
      5  N         30.3580    1.0470  -26.4150 N.3    23  GLY23      -0.1210
      6  CA        30.0650    0.4970  -25.0980 C.3    23  GLY23       0.1956
      7  C         31.2530    0.8680  -24.2400 C.2    23  GLY23       0.2612
      8  O         32.3040    1.2190  -24.7880 O.2    23  GLY23      -0.2717
      9  N         31.1380    0.8170  -22.9190 N.am   24  GLY24      -0.1942
     10  CA        32.3060    1.1710  -22.1110 C.3    24  GLY24       0.2014
     11  C         33.2940    0.0170  -22.0150 C.2    24  GLY24       0.2639
     12  O         33.5940   -0.4550  -20.9190 O.2    24  GLY24      -0.2714
     13  N         33.8260   -0.4190  -23.1560 N.am   25  VAL25      -0.1963
     14  CA        34.7170   -1.5670  -23.1860 C.3    25  VAL25       0.1727
     15  C         36.2080   -1.3540  -22.9550 C.2    25  VAL25       0.2617
     16  O         36.9080   -2.2880  -22.5730 O.2    25  VAL25      -0.2715
     17  CB        34.5400   -2.3400  -24.4870 C.3    25  VAL25       0.0290
     18  CG1       33.0890   -2.6830  -24.6830 C.3    25  VAL25       0.0023
     19  CG2       35.0270   -1.5280  -25.6220 C.3    25  VAL25       0.0023
     20  N         36.7120   -0.1490  -23.1780 N.am   26  GLY26      -0.1940
     21  CA        38.1320    0.0810  -22.9610 C.3    26  GLY26       0.2014
     22  C         38.8600    0.6030  -24.1890 C.2    26  GLY26       0.2639
     23  O         40.0670    0.4200  -24.3390 O.2    26  GLY26      -0.2714
     24  N         38.1160    1.2530  -25.0730 N.am   27  LYS27      -0.1963
     25  CA        38.6620    1.8210  -26.2950 C.3    27  LYS27       0.1728
     26  C         39.7880    2.7800  -25.9230 C.2    27  LYS27       0.2617
     27  O         40.9270    2.6070  -26.3430 O.2    27  LYS27      -0.2715
     28  CB        37.5400    2.5490  -27.0570 C.3    27  LYS27       0.0311
     29  CG        37.8800    3.0880  -28.4560 C.3    27  LYS27       0.0038
     30  CD        37.7970    4.6140  -28.4700 C.3    27  LYS27       0.0206
     31  CE        36.4960    5.1160  -27.8200 C.3    27  LYS27       0.1093
     32  NZ        36.5410    6.5620  -27.4080 N.3    27  LYS27      -0.1314
     33  N         39.4700    3.7830  -25.1160 N.am   28  THR28      -0.1937
     34  CA        40.4540    4.7720  -24.6770 C.3    28  THR28       0.2028
     35  C         41.7140    4.1420  -24.0770 C.2    28  THR28       0.2642
     36  O         42.8360    4.4700  -24.4640 O.2    28  THR28      -0.2714
     37  CB        39.8390    5.6810  -23.5820 C.3    28  THR28       0.1808
     38  OG1       38.6930    6.3640  -24.1030 O.3    28  THR28      -0.2208
     39  CG2       40.8600    6.6820  -23.0810 C.3    28  THR28       0.0379
     40  N         41.5210    3.2490  -23.1120 N.am   29  THR29      -0.1950
     41  CA        42.6460    2.6050  -22.4640 C.3    29  THR29       0.1897
     42  C         43.4810    1.8210  -23.4500 C.2    29  THR29       0.2313
     43  O         44.7070    1.8570  -23.4010 O.2    29  THR29      -0.2863
     44  CB        42.1930    1.7120  -21.3570 C.3    29  THR29       0.1794
     45  OG1       41.4210    2.4880  -20.4290 O.3    29  THR29      -0.2208
     46  CG2       43.4020    1.1050  -20.6600 C.3    29  THR29       0.0378
     47  N         39.0990   12.6140  -23.0290 N.3    57  ASN57      -0.1240
     48  CA        39.4240   11.3520  -22.3810 C.3    57  ASN57       0.1653
     49  C         40.9160   11.1440  -22.1750 C.2    57  ASN57       0.2266
     50  O         41.3540   10.8480  -21.0690 O.2    57  ASN57      -0.2867
     51  CB        38.8630   10.2150  -23.2240 C.3    57  ASN57       0.1155
     52  CG        39.3080   10.3060  -24.6670 C.2    57  ASN57       0.2627
     53  OD1       39.5340   11.3980  -25.1880 O.2    57  ASN57      -0.2716
     54  ND2       39.4240    9.1650  -25.3230 N.am   57  ASN57      -0.0877
     55  N         42.0640   12.5440  -19.1820 N.3    60  ASP60      -0.1239
     56  CA        41.6450   11.8410  -17.9880 C.3    60  ASP60       0.1674
     57  C         42.5070   10.6000  -17.7760 C.2    60  ASP60       0.2266
     58  O         42.9590   10.3260  -16.6650 O.2    60  ASP60      -0.2867
     59  CB        40.1790   11.4440  -18.0950 C.3    60  ASP60       0.1410
     60  CG        39.7040   10.6890  -16.8720 C.2    60  ASP60       0.3668
     61  OD1       39.6500   11.3140  -15.7850 O.co2  60  ASP60      -0.2456
     62  OD2       39.4050    9.4730  -16.9960 O.co2  60  ASP60      -0.2456
     63  N         33.5310    7.4150  -30.2130 N.3   153  PRO153     -0.2116
     64  CA        32.6040    6.4160  -29.6690 C.3   153  PRO153      0.1372
     65  C         31.3440    6.1330  -30.4980 C.2   153  PRO153      0.2244
     66  O         31.0190    4.9730  -30.7770 O.2   153  PRO153     -0.2868
     67  CB        32.2780    6.9730  -28.2790 C.3   153  PRO153      0.0268
     68  CG        32.3370    8.4440  -28.4900 C.3   153  PRO153      0.0207
     69  CD        33.6030    8.5840  -29.3140 C.3   153  PRO153      0.0892
     70  N         38.8560   -7.1050  -23.8730 N.3   256  ASN256     -0.1225
     71  CA        39.1530   -6.5000  -22.5830 C.3   256  ASN256      0.1785
     72  C         38.2750   -6.9060  -21.3990 C.2   256  ASN256      0.2597
     73  O         37.2150   -7.4950  -21.5670 O.2   256  ASN256     -0.2718
     74  CB        39.0790   -4.9890  -22.7560 C.3   256  ASN256      0.1169
     75  CG        39.7960   -4.2480  -21.6780 C.2   256  ASN256      0.2627
     76  OD1       40.9990   -4.4170  -21.5080 O.2   256  ASN256     -0.2716
     77  ND2       39.0710   -3.4100  -20.9390 N.am  256  ASN256     -0.0877
     78  N         38.7360   -6.5740  -20.2000 N.am  257  GLN257     -0.1979
     79  CA        38.0360   -6.8520  -18.9530 C.3   257  GLN257      0.1601
     80  C         37.7380   -8.3000  -18.6320 C.2   257  GLN257      0.2287
     81  O         36.7470   -8.5960  -17.9820 O.2   257  GLN257     -0.2864
     82  CB        36.7570   -6.0480  -18.9110 C.3   257  GLN257      0.0394
     83  CG        37.0260   -4.5680  -19.0600 C.3   257  GLN257      0.0908
     84  CD        35.7740   -3.7200  -19.0320 C.2   257  GLN257      0.2608
     85  OE1       35.8380   -2.5130  -19.2610 O.2   257  GLN257     -0.2717
     86  NE2       34.6290   -4.3400  -18.7510 N.am  257  GLN257     -0.0878
     87  N         43.3030   -8.8110  -19.0000 N.3   299  PRO299     -0.2102
     88  CA        42.7460   -9.0620  -17.6730 C.3   299  PRO299      0.1504
     89  C         42.0540   -7.8550  -17.0890 C.2   299  PRO299      0.2576
     90  O         42.4010   -6.7220  -17.4110 O.2   299  PRO299     -0.2718
     91  CB        43.9780   -9.3990  -16.8760 C.3   299  PRO299      0.0282
     92  CG        44.9530   -8.3620  -17.4040 C.3   299  PRO299      0.0208
     93  CD        44.7200   -8.4140  -18.9080 C.3   299  PRO299      0.0893
     94  N         41.0920   -8.1040  -16.2120 N.am  300  LEU300     -0.1966
     95  CA        40.3540   -7.0370  -15.5560 C.3   300  LEU300      0.1728
     96  C         41.0550   -6.7400  -14.2460 C.2   300  LEU300      0.2616
     97  O         41.0740   -7.5780  -13.3550 O.2   300  LEU300     -0.2715
     98  CB        38.9160   -7.4850  -15.2910 C.3   300  LEU300      0.0311
     99  CG        38.1340   -6.6880  -14.2460 C.3   300  LEU300      0.0022
    100  CD1       38.2800   -5.2300  -14.5270 C.3   300  LEU300      0.0001
    101  CD2       36.6620   -7.0840  -14.2600 C.3   300  LEU300      0.0001
    102  N         41.6290   -5.5500  -14.1440 N.am  301  CYS301     -0.1968
    103  CA        42.3550   -5.1170  -12.9600 C.3   301  CYS301      0.1712
    104  C         41.4200   -4.5420  -11.9120 C.2   301  CYS301      0.2296
    105  O         40.3270   -4.0820  -12.2380 O.2   301  CYS301     -0.2864
    106  CB        43.3650   -4.0550  -13.3880 C.3   301  CYS301      0.0983
    107  SG        44.2540   -4.5190  -14.9300 S.3   301  CYS301     -0.0798
    108  N         39.9940   -1.9110  -10.0530 N.3   303  GLY303     -0.1210
    109  CA        39.9400   -0.4620  -10.1130 C.3   303  GLY303      0.1956
    110  C         40.6730    0.1930  -11.2620 C.2   303  GLY303      0.2612
    111  O         41.5380   -0.4160  -11.9140 O.2   303  GLY303     -0.2717
    112  N         40.3600    1.4620  -11.4980 N.am  304  GLU304     -0.1965
    113  CA        40.9620    2.2010  -12.6100 C.3   304  GLU304      0.1733
    114  C         42.4000    1.9310  -12.9750 C.2   304  GLU304      0.2616
    115  O         43.1980    1.4400  -12.1670 O.2   304  GLU304     -0.2715
    116  CB        40.7640    3.7040  -12.4400 C.3   304  GLU304      0.0429
    117  CG        40.9390    4.2070  -11.0390 C.3   304  GLU304      0.1163
    118  CD        40.6740    5.6940  -10.9260 C.2   304  GLU304      0.3649
    119  OE1       41.5690    6.4950  -11.2900 O.co2 304  GLU304     -0.2457
    120  OE2       39.5590    6.0640  -10.4890 O.co2 304  GLU304     -0.2457
    121  N         42.6920    2.2240  -14.2410 N.am  305  ILE305     -0.1963
    122  CA        44.0170    2.0760  -14.8210 C.3   305  ILE305      0.1727
    123  C         44.2610    3.4520  -15.3960 C.2   305  ILE305      0.2616
    124  O         44.0440    3.6960  -16.5830 O.2   305  ILE305     -0.2715
    125  CB        44.0840    1.0890  -16.0110 C.3   305  ILE305      0.0290
    126  CG1       43.8170   -0.3400  -15.5740 C.3   305  ILE305      0.0022
    127  CG2       45.4660    1.1330  -16.6290 C.3   305  ILE305      0.0023
    128  CD1       44.1590   -1.3690  -16.6650 C.3   305  ILE305      0.0001
    129  N         44.7030    4.3590  -14.5430 N.am  306  ARG306     -0.1977
    130  CA        44.9420    5.7320  -14.9420 C.3   306  ARG306      0.1597
    131  C         46.4120    6.0980  -14.7550 C.2   306  ARG306      0.2287
    132  O         47.1050    5.5160  -13.9220 O.2   306  ARG306     -0.2864
    133  CB        44.0470    6.6160  -14.0860 C.3   306  ARG306      0.0334
    134  CG        43.5580    7.8350  -14.7890 C.3   306  ARG306      0.0492
    135  CD        42.3540    8.4070  -14.0760 C.3   306  ARG306      0.2205
    136  NE        41.2510    7.4470  -14.0190 N.pl3 306  ARG306     -0.0865
    137  CZ        39.9790    7.7770  -13.7830 C.cat 306  ARG306      0.5346
    138  NH1       39.0370    6.8370  -13.7460 N.pl3 306  ARG306      0.1354
    139  NH2       39.6440    9.0510  -13.5920 N.pl3 306  ARG306      0.1354
    140  N         49.9650   -2.0840  -17.5610 N.3   314  PHE314     -0.1241
    141  CA        48.8550   -2.8310  -18.1480 C.3   314  PHE314      0.1605
    142  C         49.0760   -3.0920  -19.6190 C.2   314  PHE314      0.2264
    143  O         48.7860   -4.1750  -20.1180 O.2   314  PHE314     -0.2867
    144  CB        47.5300   -2.0640  -18.0020 C.3   314  PHE314      0.0534
    145  CG        46.3580   -2.6940  -18.7400 C.ar  314  PHE314     -0.0203
    146  CD1       45.7630   -3.8640  -18.2780 C.ar  314  PHE314     -0.0042
    147  CD2       45.8370   -2.0970  -19.8810 C.ar  314  PHE314     -0.0042
    148  CE1       44.6790   -4.4170  -18.9350 C.ar  314  PHE314     -0.0003
    149  CE2       44.7580   -2.6410  -20.5400 C.ar  314  PHE314     -0.0003
    150  CZ        44.1770   -3.7990  -20.0670 C.ar  314  PHE314     -0.0000
@<TRIPOS>BOND
     1    66    65    2
     2    65    64    1
     3     1     2    1
     4    63    64    1
     5    63    69    1
     6     2     3    1
     7    64    67    1
     8    69    68    1
     9     3     4    2
    10    68    67    1
    11    30    29    1
    12    30    31    1
    13    29    28    1
    14    31    32    1
    15    28    25    1
    16     5     6    1
    17    27    26    2
    18    25    26    1
    19    25    24    1
    20    26    33   am
    21    19    17    1
    22    54    52   am
    23    53    52    2
    24    33    34    1
    25     6     7    1
    26    24    22   am
    27     8     7    2
    28    18    17    1
    29    34    35    1
    30    34    37    1
    31    52    51    1
    32    17    14    1
    33    36    35    2
    34    23    22    2
    35     7     9   am
    36    22    21    1
    37    38    37    1
    38    35    40   am
    39    70    71    1
    40    37    39    1
    41    42    43    2
    42    42    41    1
    43    51    48    1
    44    14    13    1
    45    14    15    1
    46    20    21    1
    47    20    15   am
    48    13    11   am
    49    40    41    1
    50    47    48    1
    51    15    16    2
    52     9    10    1
    53    74    71    1
    54    74    75    1
    55    71    72    1
    56    41    44    1
    57    48    49    1
    58    49    50    2
    59    10    11    1
    60    11    12    2
    61    75    76    2
    62    75    77   am
    63    73    72    2
    64    72    78   am
    65    44    46    1
    66    44    45    1
    67   149   150   ar
    68   149   147   ar
    69    78    79    1
    70   143   142    2
    71   150   148   ar
    72   147   145   ar
    73   142   141    1
    74    85    84    2
    75    55    56    1
    76    83    84    1
    77    83    82    1
    78    84    86   am
    79    87    93    1
    80    87    88    1
    81    79    82    1
    82    79    80    1
    83   148   146   ar
    84    93    92    1
    85   145   146   ar
    86   145   144    1
    87    80    81    2
    88   141   144    1
    89   141   140    1
    90    59    56    1
    91    59    60    1
    92    56    57    1
    93    57    58    2
    94    88    89    1
    95    88    91    1
    96    90    89    2
    97    92    91    1
    98    89    94   am
    99    62    60   ar
   100    60    61   ar
   101   128   126    1
   102   127   125    1
   103   124   123    2
   104    94    95    1
   105   125   126    1
   106   125   122    1
   107    95    98    1
   108    95    96    1
   109   123   122    1
   110   123   129   am
   111    98    99    1
   112   130   131    1
   113   130   129    1
   114   130   133    1
   115   107   106    1
   116   122   121    1
   117   134   133    1
   118   134   135    1
   119   131   132    2
   120   100    99    1
   121   101    99    1
   122    96   102   am
   123    96    97    2
   124   121   114   am
   125   102   103    1
   126   135   136    1
   127   136   137    2
   128   137   138    1
   129   137   139    1
   130   106   103    1
   131   114   113    1
   132   114   115    2
   133   103   104    1
   134   113   116    1
   135   113   112    1
   136   116   117    1
   137   105   104    2
   138   111   110    2
   139   112   110   am
   140   119   118   ar
   141   110   109    1
   142   117   118    1
   143   118   120   ar
   144   109   108    1
