@<TRIPOS>MOLECULE
tmp/3b2hA01.pdb
 163 149 0 0 0
SMALL
GASTEIGER

@<TRIPOS>ATOM
      1  N        -10.9970   -7.8720   28.0300 N.3    16  PHE16      -0.1241
      2  CA        -9.6080   -8.2430   27.7530 C.3    16  PHE16       0.1605
      3  C         -9.0700   -9.3270   28.6930 C.2    16  PHE16       0.2264
      4  O         -8.5380  -10.3400   28.2360 O.2    16  PHE16      -0.2867
      5  CB        -8.7050   -7.0010   27.8080 C.3    16  PHE16       0.0534
      6  CG        -7.2420   -7.2990   27.6100 C.ar   16  PHE16      -0.0203
      7  CD1       -6.6870   -7.3170   26.3350 C.ar   16  PHE16      -0.0042
      8  CD2       -6.4170   -7.5650   28.7000 C.ar   16  PHE16      -0.0042
      9  CE1       -5.3380   -7.5930   26.1490 C.ar   16  PHE16      -0.0003
     10  CE2       -5.0680   -7.8460   28.5220 C.ar   16  PHE16      -0.0003
     11  CZ        -4.5270   -7.8580   27.2460 C.ar   16  PHE16      -0.0000
     12  N         -8.1050  -13.1640   27.7130 N.3    20  MET20      -0.1245
     13  CA        -6.6890  -13.5410   27.6970 C.3    20  MET20       0.1570
     14  C         -6.3670  -14.6510   28.6960 C.2    20  MET20       0.2261
     15  O         -5.5030  -15.4920   28.4360 O.2    20  MET20      -0.2867
     16  CB        -5.7860  -12.3190   27.9000 C.3    20  MET20       0.0387
     17  CG        -5.7760  -11.3570   26.7130 C.3    20  MET20       0.0595
     18  SD        -5.2590  -12.1440   25.1790 S.3    20  MET20      -0.1393
     19  CE        -5.6310  -10.8530   23.9880 C.3    20  MET20       0.0692
     20  N         -2.7770  -16.7160   28.0150 N.3    25  LEU25      -0.1245
     21  CA        -1.7710  -15.6570   28.0600 C.3    25  LEU25       0.1561
     22  C         -1.2390  -15.5970   29.4960 C.2    25  LEU25       0.2260
     23  O         -2.0340  -15.5870   30.4380 O.2    25  LEU25      -0.2867
     24  CB        -2.3970  -14.3070   27.6880 C.3    25  LEU25       0.0270
     25  CG        -1.7890  -13.3390   26.6580 C.3    25  LEU25       0.0019
     26  CD1       -2.0210  -11.9040   27.1100 C.3    25  LEU25       0.0001
     27  CD2       -0.3070  -13.5600   26.3620 C.3    25  LEU25       0.0001
     28  N          1.7340  -10.7580   31.4210 N.3    29  LEU29      -0.1245
     29  CA         1.4580  -10.0720   30.1650 C.3    29  LEU29       0.1561
     30  C          0.0350   -9.5220   30.1320 C.2    29  LEU29       0.2260
     31  O         -0.2080   -8.4730   29.5390 O.2    29  LEU29      -0.2867
     32  CB         1.7100  -10.9960   28.9670 C.3    29  LEU29       0.0270
     33  CG         3.1240  -11.5610   28.7700 C.3    29  LEU29       0.0019
     34  CD1        3.1860  -12.3940   27.4980 C.3    29  LEU29       0.0001
     35  CD2        4.1760  -10.4580   28.7370 C.3    29  LEU29       0.0001
     36  N          0.1760   -6.3390   32.4680 N.3    32  LYS32      -0.1231
     37  CA         0.9580   -5.2730   31.8360 C.3    32  LYS32       0.1693
     38  C          0.3800   -4.8420   30.4860 C.2    32  LYS32       0.2592
     39  O          0.7620   -3.7990   29.9470 O.2    32  LYS32      -0.2718
     40  CB         2.4280   -5.6760   31.6870 C.3    32  LYS32       0.0285
     41  CG         3.1990   -5.7170   33.0000 C.3    32  LYS32       0.0035
     42  CD         4.6990   -5.8260   32.7640 C.3    32  LYS32       0.0206
     43  CE         5.4610   -5.8830   34.0800 C.3    32  LYS32       0.1093
     44  NZ         6.9380   -5.8370   33.8800 N.3    32  LYS32      -0.1314
     45  N         -0.5470   -5.6380   29.9540 N.am   33  GLY33      -0.1957
     46  CA        -1.1130   -5.3840   28.6320 C.3    33  GLY33       0.1869
     47  C         -2.5350   -4.8530   28.5960 C.2    33  GLY33       0.2309
     48  O         -2.9830   -4.3800   27.5510 O.2    33  GLY33      -0.2863
     49  N         -2.5580   -1.1580   27.7420 N.3    36  ILE36      -0.1245
     50  CA        -1.8020   -0.7900   26.5570 C.3    36  ILE36       0.1561
     51  C         -2.7660   -0.4230   25.4360 C.2    36  ILE36       0.2260
     52  O         -3.7210   -1.1570   25.1610 O.2    36  ILE36      -0.2867
     53  CB        -0.8420   -1.9180   26.1180 C.3    36  ILE36       0.0252
     54  CG1        0.3020   -2.0420   27.1300 C.3    36  ILE36       0.0019
     55  CG2       -0.2980   -1.6640   24.7080 C.3    36  ILE36       0.0019
     56  CD1        1.3430   -3.0950   26.7820 C.3    36  ILE36       0.0001
     57  N         -2.6210   -0.5310   22.0060 N.3    38  GLY38      -0.1225
     58  CA        -1.8170   -1.1150   20.9370 C.3    38  GLY38       0.1811
     59  C         -2.0480   -0.4880   19.5740 C.2    38  GLY38       0.2280
     60  O         -3.0960    0.1130   19.3220 O.2    38  GLY38      -0.2866
     61  N         -2.1550   -1.2620   15.4510 N.3    40  SER40      -0.1217
     62  CA        -2.2410   -2.2480   14.3860 C.3    40  SER40       0.1889
     63  C         -1.9750   -1.5730   13.0510 C.2    40  SER40       0.2288
     64  O         -2.6030   -0.5610   12.7240 O.2    40  SER40      -0.2866
     65  CB        -3.6150   -2.9230   14.3830 C.3    40  SER40       0.2089
     66  OG        -3.7970   -3.6880   15.5620 O.3    40  SER40      -0.2183
     67  N         -0.3660   -7.7460    8.3880 N.3    51  PHE51      -0.1241
     68  CA        -0.6280   -6.8860    9.5300 C.3    51  PHE51       0.1605
     69  C          0.3660   -7.0630   10.6590 C.2    51  PHE51       0.2264
     70  O          0.8610   -8.1640   10.9060 O.2    51  PHE51      -0.2867
     71  CB        -2.0890   -6.9710    9.9990 C.3    51  PHE51       0.0534
     72  CG        -2.4850   -8.3020   10.5540 C.ar   51  PHE51      -0.0203
     73  CD1       -2.7490   -9.3770    9.7100 C.ar   51  PHE51      -0.0042
     74  CD2       -2.6290   -8.4770   11.9280 C.ar   51  PHE51      -0.0042
     75  CE1       -3.1290  -10.6100   10.2240 C.ar   51  PHE51      -0.0003
     76  CE2       -3.0120   -9.7070   12.4530 C.ar   51  PHE51      -0.0003
     77  CZ        -3.2630  -10.7790   11.5990 C.ar   51  PHE51      -0.0000
     78  N          0.8650   -6.1230   14.7070 N.3    53  ILE53      -0.1245
     79  CA         0.2670   -5.6830   15.9610 C.3    53  ILE53       0.1561
     80  C          1.3920   -5.3970   16.9530 C.2    53  ILE53       0.2260
     81  O          2.2150   -6.2700   17.2250 O.2    53  ILE53      -0.2867
     82  CB        -0.7080   -6.7450   16.5330 C.3    53  ILE53       0.0252
     83  CG1       -1.8750   -6.9780   15.5630 C.3    53  ILE53       0.0019
     84  CG2       -1.2290   -6.3250   17.9140 C.3    53  ILE53       0.0019
     85  CD1       -2.6720   -8.2470   15.8350 C.3    53  ILE53       0.0001
     86  N          2.2020   -4.0840   20.8650 N.3    55  ALA55      -0.1231
     87  CA         1.7420   -3.7910   22.2160 C.3    55  ALA55       0.1694
     88  C          2.9520   -3.8670   23.1330 C.2    55  ALA55       0.2593
     89  O          3.4470   -4.9600   23.4110 O.2    55  ALA55      -0.2718
     90  CB         0.6830   -4.7850   22.6430 C.3    55  ALA55       0.0304
     91  N          3.3910   -2.6780   23.5450 N.am   56  GLY56      -0.1942
     92  CA         4.6470   -2.4650   24.2420 C.3    56  GLY56       0.2014
     93  C          5.8190   -2.8860   23.3820 C.2    56  GLY56       0.2640
     94  O          5.8170   -2.7190   22.1620 O.2    56  GLY56      -0.2714
     95  N          6.8360   -3.3980   24.0580 N.am   57  SER57      -0.1935
     96  CA         7.9160   -4.2220   23.4670 C.3    57  SER57       0.2055
     97  C          7.5240   -5.3160   22.4520 C.2    57  SER57       0.2642
     98  O          8.3230   -5.6550   21.5740 O.2    57  SER57      -0.2714
     99  CB         8.8070   -4.8230   24.5640 C.3    57  SER57       0.2130
    100  OG         8.1220   -5.8220   25.2970 O.3    57  SER57      -0.2179
    101  N          6.3120   -5.8610   22.5740 N.am   58  LYS58      -0.1977
    102  CA         5.8870   -7.0200   21.7870 C.3    58  LYS58       0.1596
    103  C          5.3140   -6.6570   20.4150 C.2    58  LYS58       0.2287
    104  O          4.3830   -5.8560   20.3030 O.2    58  LYS58      -0.2864
    105  CB         4.8750   -7.8560   22.5740 C.3    58  LYS58       0.0298
    106  CG         4.5640   -9.2060   21.9520 C.3    58  LYS58       0.0038
    107  CD         3.4020   -9.8760   22.6570 C.3    58  LYS58       0.0206
    108  CE         3.1880  -11.2840   22.1350 C.3    58  LYS58       0.1093
    109  NZ         2.0090  -11.9280   22.7610 N.3    58  LYS58      -0.1314
    110  N          3.9030   -8.5020   16.8120 N.3    60  ILE60      -0.1245
    111  CA         3.4740   -9.7180   16.1210 C.3    60  ILE60       0.1561
    112  C          3.1370   -9.3870   14.6760 C.2    60  ILE60       0.2260
    113  O          2.2890   -8.5290   14.4190 O.2    60  ILE60      -0.2867
    114  CB         2.2480  -10.3710   16.8000 C.3    60  ILE60       0.0252
    115  CG1        2.5710  -10.7220   18.2560 C.3    60  ILE60       0.0019
    116  CG2        1.8060  -11.6290   16.0420 C.3    60  ILE60       0.0019
    117  CD1        1.3640  -10.9340   19.1180 C.3    60  ILE60       0.0001
    118  N         -1.8520  -14.4290   20.2260 N.3    75  MET75      -0.1245
    119  CA        -1.2070  -13.6850   21.3110 C.3    75  MET75       0.1570
    120  C         -0.3180  -14.5410   22.2130 C.2    75  MET75       0.2261
    121  O          0.6710  -14.0470   22.7500 O.2    75  MET75      -0.2867
    122  CB        -2.2250  -12.8990   22.1460 C.3    75  MET75       0.0387
    123  CG        -2.7520  -11.6120   21.4990 C.3    75  MET75       0.0595
    124  SD        -1.5540  -10.6680   20.5330 S.3    75  MET75      -0.1393
    125  CE        -2.1200  -11.0170   18.8680 C.3    75  MET75       0.0692
    126  N        -13.0060   -4.8690   16.3360 N.3   112  ASN112     -0.1240
    127  CA       -12.5950   -6.2570   16.3160 C.3   112  ASN112      0.1653
    128  C        -13.2980   -7.0040   17.4320 C.2   112  ASN112      0.2266
    129  O        -13.1580   -6.6550   18.6010 O.2   112  ASN112     -0.2867
    130  CB       -11.0790   -6.3650   16.4540 C.3   112  ASN112      0.1155
    131  CG       -10.5770   -7.7600   16.1980 C.2   112  ASN112      0.2627
    132  OD1      -10.5550   -8.5980   17.0940 O.2   112  ASN112     -0.2716
    133  ND2      -10.1640   -8.0180   14.9660 N.am  112  ASN112     -0.0877
    134  N        -13.8960  -10.7220   19.1060 N.3   114  MET114     -0.1245
    135  CA       -13.4360  -12.1020   19.2420 C.3   114  MET114      0.1570
    136  C        -14.3080  -12.8170   20.2600 C.2   114  MET114      0.2261
    137  O        -14.3570  -12.4120   21.4160 O.2   114  MET114     -0.2867
    138  CB       -11.9720  -12.1500   19.6920 C.3   114  MET114      0.0387
    139  CG       -10.9530  -12.0930   18.5670 C.3   114  MET114      0.0595
    140  SD        -9.2660  -11.9890   19.2000 S.3   114  MET114     -0.1393
    141  CE        -8.3220  -12.3010   17.7120 C.3   114  MET114      0.0692
    142  N        -14.8280  -10.4790   23.3940 N.3   121  PHE121     -0.1241
    143  CA       -13.7080   -9.5560   23.5460 C.3   121  PHE121      0.1605
    144  C        -13.7690   -8.5600   22.3940 C.2   121  PHE121      0.2264
    145  O        -13.5280   -8.9220   21.2430 O.2   121  PHE121     -0.2867
    146  CB       -12.4020  -10.3690   23.5550 C.3   121  PHE121      0.0534
    147  CG       -11.1380   -9.5440   23.5170 C.ar  121  PHE121     -0.0203
    148  CD1      -10.0530   -9.9750   22.7620 C.ar  121  PHE121     -0.0042
    149  CD2      -11.0200   -8.3630   24.2460 C.ar  121  PHE121     -0.0042
    150  CE1       -8.8720   -9.2420   22.7150 C.ar  121  PHE121     -0.0003
    151  CE2       -9.8410   -7.6140   24.1970 C.ar  121  PHE121     -0.0003
    152  CZ        -8.7660   -8.0590   23.4360 C.ar  121  PHE121     -0.0000
    153  N        -12.6250   -4.8580   20.6820 N.3   123  ARG123     -0.1245
    154  CA       -11.6070   -3.8090   20.5960 C.3   123  ARG123      0.1563
    155  C        -12.0270   -2.7710   19.5670 C.2   123  ARG123      0.2260
    156  O        -12.3950   -3.1260   18.4420 O.2   123  ARG123     -0.2867
    157  CB       -10.2680   -4.3960   20.1490 C.3   123  ARG123      0.0307
    158  CG        -9.5470   -5.2450   21.1770 C.3   123  ARG123      0.0489
    159  CD        -8.4710   -6.1110   20.5150 C.3   123  ARG123      0.2205
    160  NE        -7.4870   -5.3460   19.7400 N.pl3 123  ARG123     -0.0865
    161  CZ        -6.3930   -4.7840   20.2520 C.cat 123  ARG123      0.5346
    162  NH1       -5.5500   -4.1170   19.4680 N.pl3 123  ARG123      0.1354
    163  NH2       -6.1430   -4.8800   21.5510 N.pl3 123  ARG123      0.1354
@<TRIPOS>BOND
     1    67    68    1
     2    68    71    1
     3    68    69    1
     4    73    75   ar
     5    73    72   ar
     6    71    72    1
     7    75    77   ar
     8    72    74   ar
     9    69    70    2
    10    77    76   ar
    11    74    76   ar
    12    64    63    2
    13    63    62    1
    14    65    62    1
    15    65    66    1
    16    62    61    1
    17   113   112    2
    18   112   111    1
    19    78    79    1
    20   133   131   am
    21    83    85    1
    22    83    82    1
    23    79    82    1
    24    79    80    1
    25   116   114    1
    26   111   114    1
    27   111   110    1
    28   131   130    1
    29   131   132    2
    30   127   126    1
    31   127   130    1
    32   127   128    1
    33    82    84    1
    34   114   115    1
    35    80    81    2
    36   128   129    2
    37   141   140    1
    38   115   117    1
    39   156   155    2
    40   139   140    1
    41   139   138    1
    42   125   124    1
    43   134   135    1
    44   135   138    1
    45   135   136    1
    46    60    59    2
    47   162   161    1
    48   155   154    1
    49    59    58    1
    50   160   161    2
    51   160   159    1
    52   157   154    1
    53   157   158    1
    54   118   119    1
    55   161   163    1
    56   136   137    2
    57   104   103    2
    58   103   102    1
    59   159   158    1
    60   124   123    1
    61   154   153    1
    62    86    87    1
    63    58    57    1
    64   145   144    2
    65   119   122    1
    66   119   120    1
    67   123   122    1
    68    98    97    2
    69   102   101    1
    70   102   105    1
    71   106   105    1
    72   106   107    1
    73   108   107    1
    74   108   109    1
    75    94    93    2
    76   120   121    2
    77    87    90    1
    78    87    88    1
    79   144   143    1
    80    97   101   am
    81    97    96    1
    82   150   148   ar
    83   150   152   ar
    84   148   147   ar
    85    88    89    2
    86    88    91   am
    87    93    95   am
    88    93    92    1
    89   142   143    1
    90   152   151   ar
    91    96    95    1
    92    96    99    1
    93   147   146    1
    94   147   149   ar
    95    91    92    1
    96   143   146    1
    97    19    18    1
    98   151   149   ar
    99    99   100    1
   100    55    53    1
   101    52    51    2
   102    18    17    1
   103    51    50    1
   104    53    50    1
   105    53    54    1
   106     9     7   ar
   107     9    11   ar
   108     7     6   ar
   109    27    25    1
   110    50    49    1
   111    25    26    1
   112    25    24    1
   113    17    16    1
   114    56    54    1
   115    11    10   ar
   116    34    33    1
   117    48    47    2
   118     6     5    1
   119     6     8   ar
   120    24    21    1
   121    13    12    1
   122    13    16    1
   123    13    14    1
   124     2     5    1
   125     2     1    1
   126     2     3    1
   127    20    21    1
   128    21    22    1
   129     4     3    2
   130    15    14    2
   131    10     8   ar
   132    47    46    1
   133    46    45    1
   134    35    33    1
   135    33    32    1
   136    32    29    1
   137    22    23    2
   138    31    30    2
   139    39    38    2
   140    45    38   am
   141    30    29    1
   142    29    28    1
   143    38    37    1
   144    40    37    1
   145    40    41    1
   146    37    36    1
   147    42    41    1
   148    42    43    1
   149    44    43    1
