@<TRIPOS>MOLECULE
tmp/3b2hA00.pdb
 202 186 0 0 0
SMALL
GASTEIGER

@<TRIPOS>ATOM
      1  N         -3.7620    2.0410   12.9260 N.3     8  TYR8       -0.1241
      2  CA        -4.8780    2.2610   13.8420 C.3     8  TYR8        0.1605
      3  C         -4.4140    2.0150   15.2630 C.2     8  TYR8        0.2264
      4  O         -3.6120    1.1130   15.5130 O.2     8  TYR8       -0.2867
      5  CB        -6.0300    1.3020   13.5290 C.3     8  TYR8        0.0534
      6  CG        -6.4400    1.2570   12.0700 C.ar    8  TYR8       -0.0201
      7  CD1       -5.7450    0.4620   11.1540 C.ar    8  TYR8       -0.0009
      8  CD2       -7.5380    1.9890   11.6080 C.ar    8  TYR8       -0.0009
      9  CE1       -6.1170    0.4120    9.8130 C.ar    8  TYR8        0.0417
     10  CE2       -7.9190    1.9410   10.2670 C.ar    8  TYR8        0.0417
     11  CZ        -7.2050    1.1510    9.3780 C.ar    8  TYR8        0.1957
     12  OH        -7.5800    1.1010    8.0530 O.3     8  TYR8       -0.2866
     13  N         -2.1550   -1.2620   15.4510 N.3    40  SER40      -0.1217
     14  CA        -2.2410   -2.2480   14.3860 C.3    40  SER40       0.1889
     15  C         -1.9750   -1.5730   13.0510 C.2    40  SER40       0.2288
     16  O         -2.6030   -0.5610   12.7240 O.2    40  SER40      -0.2866
     17  CB        -3.6150   -2.9230   14.3830 C.3    40  SER40       0.2089
     18  OG        -3.7970   -3.6880   15.5620 O.3    40  SER40      -0.2183
     19  N         -1.9560   -2.2860    9.0030 N.3    42  ILE42      -0.1245
     20  CA        -2.4530   -3.2060    7.9870 C.3    42  ILE42       0.1561
     21  C         -2.0500   -2.7240    6.6070 C.2    42  ILE42       0.2260
     22  O         -2.2050   -1.5500    6.2830 O.2    42  ILE42      -0.2867
     23  CB        -3.9970   -3.3330    8.0230 C.3    42  ILE42       0.0252
     24  CG1       -4.4950   -3.6320    9.4430 C.3    42  ILE42       0.0019
     25  CG2       -4.4690   -4.4030    7.0340 C.3    42  ILE42       0.0019
     26  CD1       -6.0090   -3.5370    9.5980 C.3    42  ILE42       0.0001
     27  N         -3.0260   -9.7240    2.5040 N.3    49  PHE49      -0.1241
     28  CA        -2.9440   -8.8990    3.7040 C.3    49  PHE49       0.1605
     29  C         -1.6680   -9.1370    4.4850 C.2    49  PHE49       0.2264
     30  O         -1.2070  -10.2710    4.6160 O.2    49  PHE49      -0.2867
     31  CB        -4.1100   -9.2010    4.6380 C.3    49  PHE49       0.0534
     32  CG        -5.4090   -8.5750    4.2280 C.ar   49  PHE49      -0.0203
     33  CD1       -6.1610   -9.1070    3.1820 C.ar   49  PHE49      -0.0042
     34  CD2       -5.8980   -7.4690    4.9140 C.ar   49  PHE49      -0.0042
     35  CE1       -7.3660   -8.5380    2.8190 C.ar   49  PHE49      -0.0003
     36  CE2       -7.1120   -6.8980    4.5630 C.ar   49  PHE49      -0.0003
     37  CZ        -7.8430   -7.4330    3.5090 C.ar   49  PHE49      -0.0000
     38  N         -0.3660   -7.7460    8.3880 N.3    51  PHE51      -0.1241
     39  CA        -0.6280   -6.8860    9.5300 C.3    51  PHE51       0.1605
     40  C          0.3660   -7.0630   10.6590 C.2    51  PHE51       0.2264
     41  O          0.8610   -8.1640   10.9060 O.2    51  PHE51      -0.2867
     42  CB        -2.0890   -6.9710    9.9990 C.3    51  PHE51       0.0534
     43  CG        -2.4850   -8.3020   10.5540 C.ar   51  PHE51      -0.0203
     44  CD1       -2.7490   -9.3770    9.7100 C.ar   51  PHE51      -0.0042
     45  CD2       -2.6290   -8.4770   11.9280 C.ar   51  PHE51      -0.0042
     46  CE1       -3.1290  -10.6100   10.2240 C.ar   51  PHE51      -0.0003
     47  CE2       -3.0120   -9.7070   12.4530 C.ar   51  PHE51      -0.0003
     48  CZ        -3.2630  -10.7790   11.5990 C.ar   51  PHE51      -0.0000
     49  N          0.8650   -6.1230   14.7070 N.3    53  ILE53      -0.1245
     50  CA         0.2670   -5.6830   15.9610 C.3    53  ILE53       0.1561
     51  C          1.3920   -5.3970   16.9530 C.2    53  ILE53       0.2260
     52  O          2.2150   -6.2700   17.2250 O.2    53  ILE53      -0.2867
     53  CB        -0.7080   -6.7450   16.5330 C.3    53  ILE53       0.0252
     54  CG1       -1.8750   -6.9780   15.5630 C.3    53  ILE53       0.0019
     55  CG2       -1.2290   -6.3250   17.9140 C.3    53  ILE53       0.0019
     56  CD1       -2.6720   -8.2470   15.8350 C.3    53  ILE53       0.0001
     57  N          3.9030   -8.5020   16.8120 N.3    60  ILE60      -0.1245
     58  CA         3.4740   -9.7180   16.1210 C.3    60  ILE60       0.1561
     59  C          3.1370   -9.3870   14.6760 C.2    60  ILE60       0.2260
     60  O          2.2890   -8.5290   14.4190 O.2    60  ILE60      -0.2867
     61  CB         2.2480  -10.3710   16.8000 C.3    60  ILE60       0.0252
     62  CG1        2.5710  -10.7220   18.2560 C.3    60  ILE60       0.0019
     63  CG2        1.8060  -11.6290   16.0420 C.3    60  ILE60       0.0019
     64  CD1        1.3640  -10.9340   19.1180 C.3    60  ILE60       0.0001
     65  N          1.8050  -10.8220   10.9550 N.3    62  ASN62      -0.1240
     66  CA         1.0400  -11.8740   10.3030 C.3    62  ASN62       0.1653
     67  C          0.7080  -11.5280    8.8630 C.2    62  ASN62       0.2266
     68  O          0.7430  -10.3610    8.4600 O.2    62  ASN62      -0.2867
     69  CB        -0.2440  -12.1750   11.0750 C.3    62  ASN62       0.1155
     70  CG        -0.0060  -13.0420   12.2950 C.2    62  ASN62       0.2627
     71  OD1        0.5360  -14.1410   12.1920 O.2    62  ASN62      -0.2716
     72  ND2       -0.4180  -12.5540   13.4560 N.am   62  ASN62      -0.0877
     73  N         -1.8470  -13.1510    5.3320 N.3    64  PHE64      -0.1241
     74  CA        -2.7830  -14.1280    4.7890 C.3    64  PHE64       0.1605
     75  C         -3.2970  -13.6750    3.4380 C.2    64  PHE64       0.2264
     76  O         -3.2720  -12.4850    3.1250 O.2    64  PHE64      -0.2867
     77  CB        -3.9520  -14.3960    5.7460 C.3    64  PHE64       0.0534
     78  CG        -4.7990  -13.1860    6.0450 C.ar   64  PHE64      -0.0203
     79  CD1       -5.8420  -12.8140    5.1930 C.ar   64  PHE64      -0.0042
     80  CD2       -4.5800  -12.4400    7.1970 C.ar   64  PHE64      -0.0042
     81  CE1       -6.6310  -11.7000    5.4740 C.ar   64  PHE64      -0.0003
     82  CE2       -5.3650  -11.3290    7.4890 C.ar   64  PHE64      -0.0003
     83  CZ        -6.3940  -10.9600    6.6260 C.ar   64  PHE64      -0.0000
     84  N         -1.5680  -18.1440   11.2960 N.3    72  LEU72      -0.1231
     85  CA        -1.6280  -16.9380   12.1130 C.3    72  LEU72       0.1693
     86  C         -0.9940  -17.1600   13.4750 C.2    72  LEU72       0.2592
     87  O         -1.3000  -18.1350   14.1500 O.2    72  LEU72      -0.2718
     88  CB        -3.0780  -16.4740   12.2930 C.3    72  LEU72       0.0284
     89  CG        -3.9080  -16.1420   11.0480 C.3    72  LEU72       0.0019
     90  CD1       -5.3070  -15.7470   11.4740 C.3    72  LEU72       0.0001
     91  CD2       -3.2650  -15.0370   10.2100 C.3    72  LEU72       0.0001
     92  N         -0.1120  -16.2470   13.8690 N.am   73  GLU73      -0.1966
     93  CA         0.4610  -16.2810   15.2040 C.3    73  GLU73       0.1733
     94  C         -0.4700  -15.5290   16.1470 C.2    73  GLU73       0.2617
     95  O         -0.7350  -14.3430   15.9530 O.2    73  GLU73      -0.2715
     96  CB         1.8620  -15.6670   15.2150 C.3    73  GLU73       0.0429
     97  CG         2.5700  -15.8110   16.5530 C.3    73  GLU73       0.1163
     98  CD         3.9120  -15.1040   16.5950 C.2    73  GLU73       0.3649
     99  OE1        4.4960  -14.8390   15.5190 O.co2  73  GLU73      -0.2457
    100  OE2        4.3860  -14.8200   17.7170 O.co2  73  GLU73      -0.2457
    101  N         -0.9730  -16.2360   17.1540 N.am   74  THR74      -0.1937
    102  CA        -1.9080  -15.6590   18.1190 C.3    74  THR74       0.2028
    103  C         -1.1350  -15.0170   19.2690 C.2    74  THR74       0.2642
    104  O          0.0990  -15.0600   19.2850 O.2    74  THR74      -0.2714
    105  CB        -2.8850  -16.7180   18.6560 C.3    74  THR74       0.1808
    106  OG1       -2.1630  -17.6950   19.4140 O.3    74  THR74      -0.2208
    107  CG2       -3.6240  -17.4010   17.5100 C.3    74  THR74       0.0379
    108  N         -1.8520  -14.4290   20.2260 N.am   75  MET75      -0.1976
    109  CA        -1.2070  -13.6850   21.3110 C.3    75  MET75       0.1605
    110  C         -0.3180  -14.5410   22.2130 C.2    75  MET75       0.2287
    111  O          0.6710  -14.0470   22.7500 O.2    75  MET75      -0.2864
    112  CB        -2.2250  -12.8990   22.1460 C.3    75  MET75       0.0413
    113  CG        -2.7520  -11.6120   21.4990 C.3    75  MET75       0.0598
    114  SD        -1.5540  -10.6680   20.5330 S.3    75  MET75      -0.1393
    115  CE        -2.1200  -11.0170   18.8680 C.3    75  MET75       0.0692
    116  N         -9.0240  -16.9720    6.3330 N.3    84  VAL84      -0.1245
    117  CA        -9.6700  -15.6830    6.5730 C.3    84  VAL84       0.1561
    118  C        -10.4790  -15.3250    5.3360 C.2    84  VAL84       0.2260
    119  O         -9.9780  -15.4260    4.2120 O.2    84  VAL84      -0.2867
    120  CB        -8.6480  -14.5540    6.8900 C.3    84  VAL84       0.0252
    121  CG1       -9.3780  -13.2740    7.2790 C.3    84  VAL84       0.0019
    122  CG2       -7.6890  -14.9780    8.0020 C.3    84  VAL84       0.0019
    123  N        -13.5360   -8.7280    7.7340 N.3    92  LEU92      -0.1245
    124  CA       -12.7260   -9.9420    7.7250 C.3    92  LEU92       0.1561
    125  C        -13.2230  -10.8840    8.8080 C.2    92  LEU92       0.2260
    126  O        -13.4270  -10.4640    9.9520 O.2    92  LEU92      -0.2867
    127  CB       -11.2540   -9.6050    7.9810 C.3    92  LEU92       0.0270
    128  CG       -10.4850   -8.8730    6.8800 C.3    92  LEU92       0.0019
    129  CD1       -9.2420   -8.2330    7.4720 C.3    92  LEU92       0.0001
    130  CD2      -10.1140   -9.7940    5.7300 C.3    92  LEU92       0.0001
    131  N        -12.7950  -14.9270   10.5110 N.3    94  THR94      -0.1218
    132  CA       -12.0780  -16.1890   10.6360 C.3    94  THR94       0.1862
    133  C        -12.4220  -16.8870   11.9520 C.2    94  THR94       0.2287
    134  O        -12.9980  -16.2780   12.8560 O.2    94  THR94      -0.2866
    135  CB       -10.5370  -16.0080   10.4830 C.3    94  THR94       0.1770
    136  OG1       -9.9220  -17.2920   10.3440 O.3    94  THR94      -0.2211
    137  CG2       -9.9230  -15.2730   11.6780 C.3    94  THR94       0.0375
    138  N        -10.5540  -19.7940   14.7370 N.3    96  PHE96      -0.1241
    139  CA        -9.4530  -20.6590   15.1470 C.3    96  PHE96       0.1605
    140  C         -9.5700  -20.9400   16.6370 C.2    96  PHE96       0.2264
    141  O        -10.0010  -20.0710   17.3940 O.2    96  PHE96      -0.2867
    142  CB        -8.0950  -20.0190   14.8160 C.3    96  PHE96       0.0534
    143  CG        -7.9090  -18.6400   15.3890 C.ar   96  PHE96      -0.0203
    144  CD1       -7.4030  -18.4640   16.6760 C.ar   96  PHE96      -0.0042
    145  CD2       -8.2350  -17.5130   14.6390 C.ar   96  PHE96      -0.0042
    146  CE1       -7.2370  -17.1910   17.2120 C.ar   96  PHE96      -0.0003
    147  CE2       -8.0690  -16.2350   15.1640 C.ar   96  PHE96      -0.0003
    148  CZ        -7.5660  -16.0750   16.4570 C.ar   96  PHE96      -0.0000
    149  N        -13.3970  -14.6130   15.0760 N.3   101  SER101     -0.1217
    150  CA       -12.8670  -13.2640   15.0040 C.3   101  SER101      0.1889
    151  C        -13.5130  -12.5170   13.8510 C.2   101  SER101      0.2288
    152  O        -13.5550  -13.0200   12.7250 O.2   101  SER101     -0.2866
    153  CB       -11.3480  -13.2900   14.8280 C.3   101  SER101      0.2089
    154  OG       -10.8350  -11.9760   14.6750 O.3   101  SER101     -0.2183
    155  N        -13.3410   -8.6490   12.1180 N.3   103  THR103     -0.1218
    156  CA       -12.6690   -7.3560   12.0430 C.3   103  THR103      0.1862
    157  C        -13.4030   -6.5090   11.0170 C.2   103  THR103      0.2287
    158  O        -13.4740   -6.8730    9.8410 O.2   103  THR103     -0.2866
    159  CB       -11.1930   -7.5110   11.6060 C.3   103  THR103      0.1770
    160  OG1      -10.5380   -8.4680   12.4450 O.3   103  THR103     -0.2211
    161  CG2      -10.4590   -6.1870   11.6870 C.3   103  THR103      0.0375
    162  N        -11.9490    0.7850   13.3030 N.3   110  ILE110     -0.1245
    163  CA       -11.9430   -0.6740   13.1870 C.3   110  ILE110      0.1561
    164  C        -12.4790   -1.2850   14.4690 C.2   110  ILE110      0.2260
    165  O        -11.9960   -0.9700   15.5620 O.2   110  ILE110     -0.2867
    166  CB       -10.5280   -1.2470   12.9410 C.3   110  ILE110      0.0252
    167  CG1      -10.0590   -0.9330   11.5220 C.3   110  ILE110      0.0019
    168  CG2      -10.5050   -2.7650   13.1920 C.3   110  ILE110      0.0019
    169  CD1       -8.7280   -1.5570   11.1700 C.3   110  ILE110      0.0001
    170  N        -13.0060   -4.8690   16.3360 N.3   112  ASN112     -0.1240
    171  CA       -12.5950   -6.2570   16.3160 C.3   112  ASN112      0.1653
    172  C        -13.2980   -7.0040   17.4320 C.2   112  ASN112      0.2266
    173  O        -13.1580   -6.6550   18.6010 O.2   112  ASN112     -0.2867
    174  CB       -11.0790   -6.3650   16.4540 C.3   112  ASN112      0.1155
    175  CG       -10.5770   -7.7600   16.1980 C.2   112  ASN112      0.2627
    176  OD1      -10.5550   -8.5980   17.0940 O.2   112  ASN112     -0.2716
    177  ND2      -10.1640   -8.0180   14.9660 N.am  112  ASN112     -0.0877
    178  N        -13.8960  -10.7220   19.1060 N.3   114  MET114     -0.1245
    179  CA       -13.4360  -12.1020   19.2420 C.3   114  MET114      0.1570
    180  C        -14.3080  -12.8170   20.2600 C.2   114  MET114      0.2261
    181  O        -14.3570  -12.4120   21.4160 O.2   114  MET114     -0.2867
    182  CB       -11.9720  -12.1500   19.6920 C.3   114  MET114      0.0387
    183  CG       -10.9530  -12.0930   18.5670 C.3   114  MET114      0.0595
    184  SD        -9.2660  -11.9890   19.2000 S.3   114  MET114     -0.1393
    185  CE        -8.3220  -12.3010   17.7120 C.3   114  MET114      0.0692
    186  N        -12.6250   -4.8580   20.6820 N.3   123  ARG123     -0.1245
    187  CA       -11.6070   -3.8090   20.5960 C.3   123  ARG123      0.1563
    188  C        -12.0270   -2.7710   19.5670 C.2   123  ARG123      0.2260
    189  O        -12.3950   -3.1260   18.4420 O.2   123  ARG123     -0.2867
    190  CB       -10.2680   -4.3960   20.1490 C.3   123  ARG123      0.0307
    191  CG        -9.5470   -5.2450   21.1770 C.3   123  ARG123      0.0489
    192  CD        -8.4710   -6.1110   20.5150 C.3   123  ARG123      0.2205
    193  NE        -7.4870   -5.3460   19.7400 N.pl3 123  ARG123     -0.0865
    194  CZ        -6.3930   -4.7840   20.2520 C.cat 123  ARG123      0.5346
    195  NH1       -5.5500   -4.1170   19.4680 N.pl3 123  ARG123      0.1354
    196  NH2       -6.1430   -4.8800   21.5510 N.pl3 123  ARG123      0.1354
    197  N        -10.5870    0.5460   17.5650 N.3   125  SER125     -0.1217
    198  CA        -9.3760    1.2840   17.2150 C.3   125  SER125      0.1889
    199  C         -9.6620    2.4020   16.2200 C.2   125  SER125      0.2288
    200  O        -10.6340    2.3410   15.4640 O.2   125  SER125     -0.2866
    201  CB        -8.3190    0.3360   16.6430 C.3   125  SER125      0.2089
    202  OG        -7.9900   -0.6860   17.5640 O.3   125  SER125     -0.2183
@<TRIPOS>BOND
     1    27    28    1
     2    35    33   ar
     3    35    37   ar
     4    76    75    2
     5    33    32   ar
     6    75    74    1
     7    37    36   ar
     8    28    29    1
     9    28    31    1
    10   119   118    2
    11    32    31    1
    12    32    34   ar
    13    29    30    2
    14    36    34   ar
    15    74    73    1
    16    74    77    1
    17    79    81   ar
    18    79    78   ar
    19   118   117    1
    20    81    83   ar
    21   130   128    1
    22    77    78    1
    23    78    80   ar
    24    22    21    2
    25   116   117    1
    26   117   120    1
    27    21    20    1
    28    83    82   ar
    29   128   129    1
    30   128   127    1
    31   120   121    1
    32   120   122    1
    33    25    23    1
    34    80    82   ar
    35   124   123    1
    36   124   127    1
    37   124   125    1
    38    20    23    1
    39    20    19    1
    40    23    24    1
    41    12    11    1
    42    38    39    1
    43    68    67    2
    44   125   126    2
    45    67    66    1
    46    11     9   ar
    47    11    10   ar
    48    24    26    1
    49    39    42    1
    50    39    40    1
    51    44    46   ar
    52    44    43   ar
    53     9     7   ar
    54   158   157    2
    55    42    43    1
    56    91    89    1
    57    46    48   ar
    58    10     8   ar
    59    66    65    1
    60    66    69    1
    61   136   135    1
    62   135   132    1
    63   135   137    1
    64   131   132    1
    65    43    45   ar
    66   132   133    1
    67    40    41    2
    68   157   156    1
    69    89    90    1
    70    89    88    1
    71    69    70    1
    72     7     6   ar
    73   169   167    1
    74    84    85    1
    75   167   166    1
    76    48    47   ar
    77   159   161    1
    78   159   156    1
    79   159   160    1
    80     8     6   ar
    81    45    47   ar
    82   133   134    2
    83   156   155    1
    84     6     5    1
    85    85    88    1
    86    85    86    1
    87    71    70    2
    88    70    72   am
    89    16    15    2
    90   152   151    2
    91     1     2    1
    92   166   163    1
    93   166   168    1
    94    15    14    1
    95   163   162    1
    96   163   164    1
    97    86    92   am
    98    86    87    2
    99     5     2    1
   100     2     3    1
   101   151   150    1
   102    92    93    1
   103    17    14    1
   104    17    18    1
   105    14    13    1
   106    60    59    2
   107   164   165    2
   108   145   147   ar
   109   145   143   ar
   110   154   153    1
   111    59    58    1
   112    49    50    1
   113   138   139    1
   114   142   139    1
   115   142   143    1
   116   153   150    1
   117   177   175   am
   118   150   149    1
   119   139   140    1
   120   147   148   ar
   121    93    96    1
   122    93    94    1
   123    96    97    1
   124     3     4    2
   125   143   144   ar
   126   200   199    2
   127    99    98   ar
   128    54    56    1
   129    54    53    1
   130    95    94    2
   131    50    53    1
   132    50    51    1
   133    63    61    1
   134    58    61    1
   135    58    57    1
   136    94   101   am
   137   175   174    1
   138   175   176    2
   139   199   198    1
   140   171   170    1
   141   171   174    1
   142   171   172    1
   143   148   146   ar
   144    53    55    1
   145    97    98    1
   146    98   100   ar
   147   140   141    2
   148   201   198    1
   149   201   202    1
   150   144   146   ar
   151    61    62    1
   152    51    52    2
   153   101   102    1
   154   198   197    1
   155   172   173    2
   156   107   105    1
   157   185   184    1
   158   102   105    1
   159   102   103    1
   160    62    64    1
   161   189   188    2
   162   183   184    1
   163   183   182    1
   164   105   106    1
   165   115   114    1
   166   178   179    1
   167   179   182    1
   168   179   180    1
   169   103   104    2
   170   103   108   am
   171   195   194    1
   172   188   187    1
   173   193   194    2
   174   193   192    1
   175   190   187    1
   176   190   191    1
   177   108   109    1
   178   194   196    1
   179   180   181    2
   180   192   191    1
   181   114   113    1
   182   187   186    1
   183   109   112    1
   184   109   110    1
   185   113   112    1
   186   110   111    2
