@<TRIPOS>MOLECULE
tmp/3b2qB00.pdb
 87 83 0 0 0
SMALL
GASTEIGER

@<TRIPOS>ATOM
      1  N        -32.0790   -6.0920   20.7680 N.3   129  PHE129     -0.1241
      2  CA       -31.8190   -7.4770   21.1250 C.3   129  PHE129      0.1605
      3  C        -32.7820   -7.8230   22.2440 C.2   129  PHE129      0.2264
      4  O        -32.7180   -7.2480   23.3300 O.2   129  PHE129     -0.2867
      5  CB       -30.3800   -7.6520   21.6030 C.3   129  PHE129      0.0534
      6  CG       -29.8530   -9.0330   21.4010 C.ar  129  PHE129     -0.0203
      7  CD1      -29.5590   -9.4900   20.1210 C.ar  129  PHE129     -0.0042
      8  CD2      -29.6920   -9.8990   22.4710 C.ar  129  PHE129     -0.0042
      9  CE1      -29.1130  -10.7930   19.9110 C.ar  129  PHE129     -0.0003
     10  CE2      -29.2480  -11.2030   22.2660 C.ar  129  PHE129     -0.0003
     11  CZ       -28.9590  -11.6490   20.9890 C.ar  129  PHE129     -0.0000
     12  N        -34.5300  -13.6820   20.7670 N.3   276  MET276     -0.1245
     13  CA       -34.0840  -15.0570   20.8970 C.3   276  MET276      0.1570
     14  C        -35.2750  -15.9490   21.2240 C.2   276  MET276      0.2261
     15  O        -36.1450  -15.5820   22.0180 O.2   276  MET276     -0.2867
     16  CB       -33.0110  -15.1690   21.9840 C.3   276  MET276      0.0387
     17  CG       -31.7120  -14.4320   21.6440 C.3   276  MET276      0.0595
     18  SD       -30.8970  -15.0100   20.1160 S.3   276  MET276     -0.1393
     19  CE       -31.3540  -13.7130   18.9400 C.3   276  MET276      0.0692
     20  N        -31.8400  -21.5220   17.8670 N.3   285  ILE285     -0.1231
     21  CA       -31.3820  -20.1370   17.9230 C.3   285  ILE285      0.1678
     22  C        -30.3580  -19.8680   16.8220 C.2   285  ILE285      0.2434
     23  O        -29.2430  -20.3890   16.8530 O.2   285  ILE285     -0.2733
     24  CB       -30.7560  -19.8020   19.2960 C.3   285  ILE285      0.0265
     25  CG1      -31.7990  -19.9880   20.4000 C.3   285  ILE285      0.0019
     26  CG2      -30.2440  -18.3670   19.3010 C.3   285  ILE285      0.0020
     27  CD1      -31.3060  -19.6190   21.7890 C.3   285  ILE285      0.0001
     28  N        -30.7330  -19.0450   15.8320 N.am  286  PRO286     -0.2718
     29  CA       -29.8640  -18.6950   14.7060 C.3   286  PRO286      0.1535
     30  C        -28.7900  -17.6850   15.0850 C.2   286  PRO286      0.2599
     31  O        -28.9650  -16.9060   16.0270 O.2   286  PRO286     -0.2715
     32  CB       -30.8430  -18.1220   13.6970 C.3   286  PRO286      0.0310
     33  CG       -31.7920  -17.3700   14.5860 C.3   286  PRO286      0.0237
     34  CD       -32.0350  -18.3630   15.7150 C.3   286  PRO286      0.0939
     35  N        -27.6820  -17.7040   14.3480 N.am  287  ASP287     -0.1958
     36  CA       -26.5870  -16.7690   14.5880 C.3   287  ASP287      0.1840
     37  C        -26.8550  -15.5130   13.7630 C.2   287  ASP287      0.2622
     38  O        -26.6030  -15.4810   12.5580 O.2   287  ASP287     -0.2715
     39  CB       -25.2480  -17.3950   14.1810 C.3   287  ASP287      0.1450
     40  CG       -24.0770  -16.4210   14.2950 C.2   287  ASP287      0.3671
     41  OD1      -24.2250  -15.3400   14.9050 O.co2 287  ASP287     -0.2456
     42  OD2      -22.9920  -16.7490   13.7760 O.co2 287  ASP287     -0.2456
     43  N        -27.3860  -14.4890   14.4180 N.am  288  LEU288     -0.1963
     44  CA       -27.6940  -13.2340   13.7470 C.3   288  LEU288      0.1728
     45  C        -26.6850  -12.1410   14.1170 C.2   288  LEU288      0.2616
     46  O        -26.9750  -10.9540   13.9610 O.2   288  LEU288     -0.2715
     47  CB       -29.1030  -12.7720   14.1290 C.3   288  LEU288      0.0311
     48  CG       -30.2780  -13.7150   13.8440 C.3   288  LEU288      0.0022
     49  CD1      -31.5620  -13.0580   14.3340 C.3   288  LEU288      0.0001
     50  CD2      -30.3770  -14.0280   12.3540 C.3   288  LEU288      0.0001
     51  N        -25.5070  -12.5400   14.6030 N.am  289  SER289     -0.1950
     52  CA       -24.4880  -11.5720   15.0080 C.3   289  SER289      0.1924
     53  C        -23.9590  -10.7000   13.8710 C.2   289  SER289      0.2314
     54  O        -23.3840   -9.6430   14.1170 O.2   289  SER289     -0.2863
     55  CB       -23.3210  -12.2790   15.7150 C.3   289  SER289      0.2116
     56  OG       -22.6010  -13.1350   14.8470 O.3   289  SER289     -0.2180
     57  N        -25.0500   -7.2420   14.0740 N.3   292  ILE292     -0.1245
     58  CA       -24.5740   -6.4480   15.2010 C.3   292  ILE292      0.1561
     59  C        -23.1370   -5.9670   15.0370 C.2   292  ILE292      0.2260
     60  O        -22.2010   -6.5950   15.5300 O.2   292  ILE292     -0.2867
     61  CB       -24.7020   -7.2620   16.5060 C.3   292  ILE292      0.0252
     62  CG1      -26.1350   -7.7780   16.6400 C.3   292  ILE292      0.0019
     63  CG2      -24.3460   -6.3980   17.7070 C.3   292  ILE292      0.0019
     64  CD1      -26.3880   -8.5930   17.8880 C.3   292  ILE292      0.0001
     65  N        -26.0260   -2.3600   19.9510 N.3   296  GLN296     -0.1245
     66  CA       -27.3710   -2.8960   20.0950 C.3   296  GLN296      0.1566
     67  C        -28.0660   -2.3740   21.3410 C.2   296  GLN296      0.2260
     68  O        -27.4230   -1.8760   22.2600 O.2   296  GLN296     -0.2867
     69  CB       -27.3520   -4.4250   20.1250 C.3   296  GLN296      0.0367
     70  CG       -26.7330   -5.0370   21.3610 C.3   296  GLN296      0.0905
     71  CD       -25.2420   -4.7950   21.4520 C.2   296  GLN296      0.2608
     72  OE1      -24.5000   -5.0100   20.4910 O.2   296  GLN296     -0.2717
     73  NE2      -24.7910   -4.3680   22.6160 N.am  296  GLN296     -0.0878
     74  N        -30.3670   -3.5710   24.3750 N.3   298  VAL298     -0.1245
     75  CA       -30.7770   -4.7810   25.0750 C.3   298  VAL298      0.1561
     76  C        -32.0290   -4.6530   25.9310 C.2   298  VAL298      0.2260
     77  O        -32.0750   -3.8570   26.8670 O.2   298  VAL298     -0.2867
     78  CB       -29.6360   -5.3100   25.9780 C.3   298  VAL298      0.0252
     79  CG1      -30.0500   -6.6190   26.6430 C.3   298  VAL298      0.0019
     80  CG2      -28.3730   -5.5010   25.1550 C.3   298  VAL298      0.0019
     81  N        -25.3750   -3.3570   29.0430 N.3   316  PRO316     -0.2116
     82  CA       -24.9320   -4.2140   27.9340 C.3   316  PRO316      0.1372
     83  C        -25.2830   -3.5840   26.5850 C.2   316  PRO316      0.2244
     84  O        -24.8260   -4.0460   25.5350 O.2   316  PRO316     -0.2868
     85  CB       -25.6940   -5.5140   28.1750 C.3   316  PRO316      0.0268
     86  CG       -26.9770   -5.0240   28.7790 C.3   316  PRO316      0.0207
     87  CD       -26.4970   -3.9820   29.7650 C.3   316  PRO316      0.0892
@<TRIPOS>BOND
     1    50    48    1
     2    38    37    2
     3    32    33    1
     4    32    29    1
     5    44    45    1
     6    44    47    1
     7    44    43    1
     8    37    43   am
     9    37    36    1
    10    42    40   ar
    11    48    47    1
    12    48    49    1
    13    53    54    2
    14    53    52    1
    15    46    45    2
    16    57    58    1
    17    45    51   am
    18    39    40    1
    19    39    36    1
    20    40    41   ar
    21    35    36    1
    22    35    30   am
    23    33    34    1
    24    51    52    1
    25    29    30    1
    26    29    28    1
    27    56    55    1
    28    52    55    1
    29    59    58    1
    30    59    60    2
    31    30    31    2
    32    58    61    1
    33    34    28    1
    34    28    22   am
    35    61    62    1
    36    61    63    1
    37    62    64    1
    38    22    23    2
    39    22    21    1
    40    20    21    1
    41    21    24    1
    42    19    18    1
    43    24    26    1
    44    24    25    1
    45     9     7   ar
    46     9    11   ar
    47    65    66    1
    48    66    69    1
    49    66    67    1
    50    18    17    1
    51     7     6   ar
    52    69    70    1
    53    25    27    1
    54    72    71    2
    55    12    13    1
    56     1     2    1
    57    13    14    1
    58    13    16    1
    59    11    10   ar
    60     2     5    1
    61     2     3    1
    62    14    15    2
    63    67    68    2
    64    70    71    1
    65     6     5    1
    66     6     8   ar
    67    71    73   am
    68    17    16    1
    69     3     4    2
    70    10     8   ar
    71    74    75    1
    72    75    76    1
    73    75    78    1
    74    80    78    1
    75    84    83    2
    76    76    77    2
    77    78    79    1
    78    83    82    1
    79    82    85    1
    80    82    81    1
    81    85    86    1
    82    86    87    1
    83    81    87    1
