@<TRIPOS>MOLECULE
tmp/3b2sA01.pdb
 184 172 0 0 0
SMALL
GASTEIGER

@<TRIPOS>ATOM
      1  N        -38.0040  -32.7470   -9.2210 N.3    14  GLY14      -0.1210
      2  CA       -36.8460  -31.9570   -9.6500 C.3    14  GLY14       0.1956
      3  C        -37.1270  -31.0620  -10.8440 C.2    14  GLY14       0.2611
      4  O        -36.4390  -30.0600  -11.0400 O.2    14  GLY14      -0.2717
      5  N        -38.1430  -31.4140  -11.6330 N.am   15  LEU15      -0.1979
      6  CA       -38.5570  -30.5960  -12.7850 C.3    15  LEU15       0.1596
      7  C        -39.6090  -29.5460  -12.4120 C.2    15  LEU15       0.2287
      8  O        -39.5490  -28.3940  -12.8700 O.2    15  LEU15      -0.2864
      9  CB       -39.0560  -31.4940  -13.9030 C.3    15  LEU15       0.0297
     10  CG       -37.9860  -32.4690  -14.4010 C.3    15  LEU15       0.0022
     11  CD1      -38.4880  -33.1510  -15.6650 C.3    15  LEU15       0.0001
     12  CD2      -36.6690  -31.7570  -14.6700 C.3    15  LEU15       0.0001
     13  N        -38.0390  -26.0300  -10.9780 N.3    18  ILE18      -0.1245
     14  CA       -37.0230  -25.2260  -11.6450 C.3    18  ILE18       0.1561
     15  C        -37.5190  -24.5510  -12.9360 C.2    18  ILE18       0.2260
     16  O        -38.5120  -24.9970  -13.5380 O.2    18  ILE18      -0.2867
     17  CB       -35.7370  -26.0520  -11.9090 C.3    18  ILE18       0.0252
     18  CG1      -36.0020  -27.1890  -12.8880 C.3    18  ILE18       0.0019
     19  CG2      -35.1510  -26.6250  -10.5890 C.3    18  ILE18       0.0019
     20  CD1      -34.7290  -27.8570  -13.3770 C.3    18  ILE18       0.0001
     21  N        -36.0110  -23.3830  -16.7500 N.3    20  THR20      -0.1218
     22  CA       -34.9530  -23.3800  -17.7600 C.3    20  THR20       0.1862
     23  C        -34.8530  -21.9880  -18.4030 C.2    20  THR20       0.2287
     24  O        -35.8600  -21.4490  -18.8730 O.2    20  THR20      -0.2866
     25  CB       -35.2410  -24.4170  -18.8510 C.3    20  THR20       0.1770
     26  OG1      -35.4110  -25.6910  -18.2330 O.3    20  THR20      -0.2211
     27  CG2      -34.0810  -24.4700  -19.8710 C.3    20  THR20       0.0375
     28  N        -33.3810  -19.6760  -11.8440 N.3   120  THR120     -0.1203
     29  CA       -33.4700  -21.0800  -12.2350 C.3   120  THR120      0.1994
     30  C        -33.9790  -21.9360  -11.0730 C.2   120  THR120      0.2617
     31  O        -34.8980  -22.7700  -11.2050 O.2   120  THR120     -0.2717
     32  CB       -32.0700  -21.5940  -12.6680 C.3   120  THR120      0.1784
     33  OG1      -31.6530  -20.8880  -13.8420 O.3   120  THR120     -0.2211
     34  CG2      -32.0760  -23.1220  -12.9380 C.3   120  THR120      0.0376
     35  N        -33.3560  -21.7350   -9.9230 N.am  121  LEU121     -0.1979
     36  CA       -33.6300  -22.5760   -8.7680 C.3   121  LEU121      0.1596
     37  C        -34.6680  -21.8900   -7.8750 C.2   121  LEU121      0.2287
     38  O        -34.8090  -20.6750   -7.9270 O.2   121  LEU121     -0.2864
     39  CB       -32.3180  -22.8340   -7.9970 C.3   121  LEU121      0.0297
     40  CG       -31.2050  -23.5580   -8.7750 C.3   121  LEU121      0.0022
     41  CD1      -29.9600  -23.6900   -7.8980 C.3   121  LEU121      0.0001
     42  CD2      -31.6570  -24.9240   -9.2850 C.3   121  LEU121      0.0001
     43  N        -40.1080  -25.9650  -15.8950 N.3   153  HIS153     -0.1241
     44  CA       -39.5510  -27.2330  -16.3620 C.3   153  HIS153      0.1621
     45  C        -40.5010  -28.4450  -16.3520 C.2   153  HIS153      0.2264
     46  O        -40.3380  -29.3330  -17.1190 O.2   153  HIS153     -0.2867
     47  CB       -38.1820  -27.5420  -15.7630 C.3   153  HIS153      0.0745
     48  CG       -37.3260  -28.4420  -16.6020 C.ar  153  HIS153      0.0817
     49  ND1      -37.8370  -29.4040  -17.4350 N.ar  153  HIS153     -0.2268
     50  CD2      -35.9880  -28.5430  -16.7100 C.ar  153  HIS153      0.1154
     51  CE1      -36.8630  -30.0540  -18.0200 C.ar  153  HIS153      0.1986
     52  NE2      -35.7330  -29.5390  -17.6120 N.ar  153  HIS153     -0.2212
     53  N        -36.2840  -28.4830  -22.9430 N.3   158  MET158     -0.1245
     54  CA       -35.7620  -27.4440  -23.8250 C.3   158  MET158      0.1570
     55  C        -36.2460  -27.6250  -25.2870 C.2   158  MET158      0.2261
     56  O        -36.3850  -26.6400  -26.0180 O.2   158  MET158     -0.2867
     57  CB       -34.2280  -27.3310  -23.7370 C.3   158  MET158      0.0387
     58  CG       -33.5880  -26.2470  -24.6610 C.3   158  MET158      0.0595
     59  SD       -34.3100  -24.5770  -24.5010 S.3   158  MET158     -0.1393
     60  CE       -33.1310  -23.7600  -23.3980 C.3   158  MET158      0.0692
     61  N        -31.6080  -34.3210   -6.8790 N.3   218  ASP218     -0.1225
     62  CA       -31.8550  -33.1940   -7.7950 C.3   218  ASP218      0.1805
     63  C        -31.0760  -31.9380   -7.4210 C.2   218  ASP218      0.2597
     64  O        -31.0650  -31.5460   -6.2550 O.2   218  ASP218     -0.2718
     65  CB       -33.3570  -32.8560   -7.8590 C.3   218  ASP218      0.1424
     66  CG       -34.1970  -33.9970   -8.4210 C.2   218  ASP218      0.3668
     67  OD1      -33.8270  -34.5970   -9.4560 O.co2 218  ASP218     -0.2456
     68  OD2      -35.2460  -34.2900   -7.8280 O.co2 218  ASP218     -0.2456
     69  N        -30.4400  -31.3180   -8.4210 N.am  219  ALA219     -0.1979
     70  CA       -29.7140  -30.0400   -8.2810 C.3   219  ALA219      0.1597
     71  C        -28.9860  -29.9180   -6.9400 C.2   219  ALA219      0.2287
     72  O        -29.2380  -28.9930   -6.1360 O.2   219  ALA219     -0.2864
     73  CB       -30.6570  -28.8500   -8.5170 C.3   219  ALA219      0.0319
     74  N        -28.8440  -36.3200  -21.0620 N.3   289  ALA289     -0.1245
     75  CA       -30.2590  -36.0360  -21.3740 C.3   289  ALA289      0.1562
     76  C        -30.5370  -36.3590  -22.8360 C.2   289  ALA289      0.2260
     77  O        -29.6930  -36.0840  -23.7190 O.2   289  ALA289     -0.2867
     78  CB       -30.6380  -34.5560  -21.0600 C.3   289  ALA289      0.0290
     79  N        -38.5960  -36.2050  -22.0700 N.3   307  GLN307     -0.1245
     80  CA       -37.1430  -36.2750  -22.0290 C.3   307  GLN307      0.1566
     81  C        -36.8110  -37.3970  -21.0460 C.2   307  GLN307      0.2260
     82  O        -37.5600  -37.6410  -20.1050 O.2   307  GLN307     -0.2867
     83  CB       -36.5960  -34.9550  -21.4760 C.3   307  GLN307      0.0367
     84  CG       -35.1040  -34.7610  -21.6180 C.3   307  GLN307      0.0905
     85  CD       -34.5100  -34.0450  -20.4230 C.2   307  GLN307      0.2608
     86  OE1      -34.8090  -32.8710  -20.1660 O.2   307  GLN307     -0.2717
     87  NE2      -33.6780  -34.7620  -19.6620 N.am  307  GLN307     -0.0878
     88  N        -32.9640  -39.7780  -19.6680 N.3   309  MET309     -0.1245
     89  CA       -31.5050  -39.7830  -19.6360 C.3   309  MET309      0.1570
     90  C        -31.0160  -41.1490  -20.1080 C.2   309  MET309      0.2261
     91  O        -31.7740  -42.1300  -20.0780 O.2   309  MET309     -0.2867
     92  CB       -30.9890  -39.5980  -18.2120 C.3   309  MET309      0.0387
     93  CG       -31.6080  -38.4590  -17.4340 C.3   309  MET309      0.0595
     94  SD       -31.1710  -36.8330  -18.0260 S.3   309  MET309     -0.1393
     95  CE       -29.5000  -36.6670  -17.3710 C.3   309  MET309      0.0692
     96  N        -34.1290  -37.9500  -12.2070 N.3   362  LEU362     -0.1231
     97  CA       -33.2640  -38.2410  -13.3550 C.3   362  LEU362      0.1693
     98  C        -31.7520  -38.3370  -13.0140 C.2   362  LEU362      0.2592
     99  O        -30.9530  -38.8030  -13.8400 O.2   362  LEU362     -0.2718
    100  CB       -33.4810  -37.1800  -14.4330 C.3   362  LEU362      0.0284
    101  CG       -34.8650  -37.1610  -15.1020 C.3   362  LEU362      0.0019
    102  CD1      -34.8770  -36.0950  -16.1900 C.3   362  LEU362      0.0001
    103  CD2      -35.2420  -38.5220  -15.7030 C.3   362  LEU362      0.0001
    104  N        -31.3640  -37.8830  -11.8190 N.am  363  THR363     -0.1953
    105  CA       -29.9850  -37.9970  -11.3580 C.3   363  THR363      0.1897
    106  C        -29.9720  -38.5950   -9.9290 C.2   363  THR363      0.2313
    107  O        -29.1780  -38.1960   -9.0720 O.2   363  THR363     -0.2863
    108  CB       -29.2330  -36.6470  -11.4020 C.3   363  THR363      0.1794
    109  OG1      -29.9710  -35.6880  -10.6460 O.3   363  THR363     -0.2208
    110  CG2      -29.1130  -36.1120  -12.8530 C.3   363  THR363      0.0378
    111  N        -23.3600  -34.7480  -15.4610 N.3   373  MET373     -0.1230
    112  CA       -24.7820  -34.6560  -15.7940 C.3   373  MET373      0.1702
    113  C        -24.9110  -33.6020  -16.9010 C.2   373  MET373      0.2592
    114  O        -24.8270  -32.4130  -16.6280 O.2   373  MET373     -0.2718
    115  CB       -25.6090  -34.2720  -14.5590 C.3   373  MET373      0.0401
    116  CG       -25.5360  -35.2910  -13.3920 C.3   373  MET373      0.0596
    117  SD       -26.1020  -34.6530  -11.7930 S.3   373  MET373     -0.1393
    118  CE       -24.8950  -33.3630  -11.5270 C.3   373  MET373      0.0692
    119  N        -25.0820  -34.0580  -18.1350 N.am  374  LEU374     -0.1966
    120  CA       -24.9940  -33.1810  -19.2930 C.3   374  LEU374      0.1728
    121  C        -26.3030  -33.1780  -20.0750 C.2   374  LEU374      0.2616
    122  O        -26.8620  -34.2320  -20.3490 O.2   374  LEU374     -0.2715
    123  CB       -23.8620  -33.6490  -20.2370 C.3   374  LEU374      0.0311
    124  CG       -23.9640  -33.0200  -21.6580 C.3   374  LEU374      0.0022
    125  CD1      -23.4310  -31.6410  -21.6060 C.3   374  LEU374      0.0001
    126  CD2      -23.2180  -33.8020  -22.7080 C.3   374  LEU374      0.0001
    127  N        -26.7650  -31.9860  -20.4340 N.am  375  SER375     -0.1950
    128  CA       -27.8880  -31.8420  -21.3420 C.3   375  SER375      0.1924
    129  C        -27.4800  -31.0110  -22.5590 C.2   375  SER375      0.2314
    130  O        -27.1610  -29.8250  -22.4270 O.2   375  SER375     -0.2863
    131  CB       -29.0650  -31.1560  -20.6440 C.3   375  SER375      0.2116
    132  OG       -30.1970  -31.2050  -21.5160 O.3   375  SER375     -0.2180
    133  N        -28.2920  -28.9460  -25.7470 N.3   377  TRP377     -0.1241
    134  CA       -29.3050  -28.1750  -26.4880 C.3   377  TRP377      0.1605
    135  C        -28.8610  -27.9330  -27.9130 C.2   377  TRP377      0.2264
    136  O        -29.3920  -27.0500  -28.5940 O.2   377  TRP377     -0.2867
    137  CB       -29.5580  -26.8260  -25.7900 C.3   377  TRP377      0.0550
    138  CG       -30.0210  -26.9620  -24.3710 C.ar  377  TRP377      0.0003
    139  CD1      -30.5740  -28.0690  -23.7980 C.ar  377  TRP377      0.0946
    140  CD2      -30.0210  -25.9400  -23.3580 C.ar  377  TRP377      0.0152
    141  NE1      -30.9090  -27.8100  -22.4840 N.ar  377  TRP377     -0.2442
    142  CE2      -30.5810  -26.5130  -22.1870 C.ar  377  TRP377      0.0810
    143  CE3      -29.5980  -24.5980  -23.3230 C.ar  377  TRP377      0.0012
    144  CZ2      -30.7300  -25.7890  -20.9810 C.ar  377  TRP377      0.0191
    145  CZ3      -29.7440  -23.8790  -22.1320 C.ar  377  TRP377      0.0001
    146  CH2      -30.3100  -24.4830  -20.9750 C.ar  377  TRP377      0.0015
    147  N        -26.0840  -19.1910  -13.0560 N.3   402  PHE402     -0.1241
    148  CA       -26.8200  -19.3000  -11.8090 C.3   402  PHE402      0.1605
    149  C        -25.8920  -19.9590  -10.7670 C.2   402  PHE402      0.2264
    150  O        -24.6710  -19.9790  -10.9700 O.2   402  PHE402     -0.2867
    151  CB       -28.1940  -19.9970  -11.9920 C.3   402  PHE402      0.0534
    152  CG       -28.1370  -21.4510  -12.4280 C.ar  402  PHE402     -0.0203
    153  CD1      -28.4770  -22.4630  -11.5330 C.ar  402  PHE402     -0.0042
    154  CD2      -27.8190  -21.7990  -13.7440 C.ar  402  PHE402     -0.0042
    155  CE1      -28.4520  -23.8150  -11.9170 C.ar  402  PHE402     -0.0003
    156  CE2      -27.8020  -23.1300  -14.1520 C.ar  402  PHE402     -0.0003
    157  CZ       -28.1260  -24.1550  -13.2340 C.ar  402  PHE402     -0.0000
    158  N        -23.8400  -25.9100   -9.8370 N.3   405  VAL405     -0.1245
    159  CA       -24.3480  -27.2280   -9.4650 C.3   405  VAL405      0.1561
    160  C        -23.2590  -28.2150   -9.9070 C.2   405  VAL405      0.2260
    161  O        -23.0850  -28.4590  -11.0940 O.2   405  VAL405     -0.2867
    162  CB       -25.7010  -27.5380  -10.1530 C.3   405  VAL405      0.0252
    163  CG1      -26.2140  -28.9360   -9.7810 C.3   405  VAL405      0.0019
    164  CG2      -26.7330  -26.4790   -9.7780 C.3   405  VAL405      0.0019
    165  N        -22.9090  -30.5140  -13.2990 N.3   408  LEU408     -0.1245
    166  CA       -23.9420  -30.1910  -14.2760 C.3   408  LEU408      0.1561
    167  C        -23.3120  -29.4510  -15.4490 C.2   408  LEU408      0.2260
    168  O        -22.4490  -28.5820  -15.2710 O.2   408  LEU408     -0.2867
    169  CB       -25.0410  -29.3450  -13.6140 C.3   408  LEU408      0.0270
    170  CG       -26.2640  -28.9330  -14.4470 C.3   408  LEU408      0.0019
    171  CD1      -27.0590  -30.1750  -14.9050 C.3   408  LEU408      0.0001
    172  CD2      -27.1430  -28.0080  -13.6110 C.3   408  LEU408      0.0001
    173  N        -24.0750  -28.2180  -19.9020 N.3   410  TYR410     -0.1241
    174  CA       -24.9720  -28.0390  -21.0620 C.3   410  TYR410      0.1605
    175  C        -24.1650  -27.8110  -22.3430 C.2   410  TYR410      0.2264
    176  O        -23.0930  -27.2410  -22.2840 O.2   410  TYR410     -0.2867
    177  CB       -25.8490  -26.7920  -20.8480 C.3   410  TYR410      0.0534
    178  CG       -26.7490  -26.8830  -19.6410 C.ar  410  TYR410     -0.0201
    179  CD1      -26.4230  -26.2460  -18.4330 C.ar  410  TYR410     -0.0009
    180  CD2      -27.9450  -27.5980  -19.7150 C.ar  410  TYR410     -0.0009
    181  CE1      -27.2640  -26.3460  -17.3310 C.ar  410  TYR410      0.0417
    182  CE2      -28.7940  -27.6980  -18.6230 C.ar  410  TYR410      0.0417
    183  CZ       -28.4470  -27.0790  -17.4420 C.ar  410  TYR410      0.1957
    184  OH       -29.3170  -27.2210  -16.3820 O.3   410  TYR410     -0.2866
@<TRIPOS>BOND
     1   136   135    2
     2   135   134    1
     3   134   137    1
     4   134   133    1
     5    56    55    2
     6   137   138    1
     7    55    54    1
     8    58    59    1
     9    58    57    1
    10    59    60    1
    11   138   139   ar
    12   138   140   ar
    13    54    57    1
    14    54    53    1
    15   139   141   ar
    16    77    76    2
    17   140   143   ar
    18   140   142   ar
    19   143   145   ar
    20    76    75    1
    21   126   124    1
    22   129   130    2
    23   129   128    1
    24   141   142   ar
    25   175   176    2
    26   175   174    1
    27   142   144   ar
    28   145   146   ar
    29    79    80    1
    30    80    83    1
    31    80    81    1
    32   124   125    1
    33   124   123    1
    34    84    83    1
    35    84    85    1
    36   132   131    1
    37    75    74    1
    38    75    78    1
    39   128   131    1
    40   128   127    1
    41   174   177    1
    42   174   173    1
    43    81    82    2
    44   144   146   ar
    45   177   178    1
    46   127   121   am
    47    85    86    2
    48    85    87   am
    49   122   121    2
    50   123   120    1
    51    90    91    2
    52    90    89    1
    53   121   120    1
    54    27    25    1
    55   180   178   ar
    56   180   182   ar
    57    88    89    1
    58   178   179   ar
    59    89    92    1
    60   120   119    1
    61    24    23    2
    62    25    26    1
    63    25    22    1
    64   182   183   ar
    65   179   181   ar
    66    23    22    1
    67    92    93    1
    68   119   113   am
    69    94    93    1
    70    94    95    1
    71    51    52   ar
    72    51    49   ar
    73    22    21    1
    74    52    50   ar
    75   183   181   ar
    76   183   184    1
    77    49    48   ar
    78    46    45    2
    79   113   114    2
    80   113   112    1
    81    50    48   ar
    82    48    47    1
    83    44    45    1
    84    44    43    1
    85    44    47    1
    86   102   101    1
    87   112   111    1
    88   112   115    1
    89   103   101    1
    90    11    10    1
    91   167   168    2
    92   167   166    1
    93   101   100    1
    94   171   170    1
    95    12    10    1
    96   115   116    1
    97   170   169    1
    98   170   172    1
    99   100    97    1
   100    10     9    1
   101   166   169    1
   102   166   165    1
   103   156   154   ar
   104   156   157   ar
   105     9     6    1
   106    33    32    1
   107    99    98    2
   108   154   152   ar
   109    16    15    2
   110   116   117    1
   111    20    18    1
   112    97    98    1
   113    97    96    1
   114   157   155   ar
   115   147   148    1
   116    98   104   am
   117    34    32    1
   118    15    14    1
   119    18    17    1
   120     8     7    2
   121   110   108    1
   122     6     7    1
   123     6     5    1
   124    32    29    1
   125   152   151    1
   126   152   153   ar
   127    29    28    1
   128    29    30    1
   129   151   148    1
   130   155   153   ar
   131    17    14    1
   132    17    19    1
   133   104   105    1
   134   148   149    1
   135   117   118    1
   136    14    13    1
   137     5     3   am
   138   108   105    1
   139   108   109    1
   140   105   106    1
   141    31    30    2
   142   161   160    2
   143    30    35   am
   144     4     3    2
   145   150   149    2
   146     3     2    1
   147   162   163    1
   148   162   164    1
   149   162   159    1
   150   106   107    2
   151    35    36    1
   152   160   159    1
   153   158   159    1
   154     2     1    1
   155    67    66   ar
   156    42    40    1
   157    40    39    1
   158    40    41    1
   159    36    39    1
   160    36    37    1
   161    73    70    1
   162    69    70    1
   163    69    63   am
   164    66    65    1
   165    66    68   ar
   166    70    71    1
   167    38    37    2
   168    65    62    1
   169    62    63    1
   170    62    61    1
   171    63    64    2
   172    71    72    2
