@<TRIPOS>MOLECULE
tmp/3b2sA00.pdb
 173 167 0 0 0
SMALL
GASTEIGER

@<TRIPOS>ATOM
      1  N        -39.5690  -29.3150  -21.5460 N.3   157  ASP157     -0.1225
      2  CA       -38.1070  -29.5070  -21.6460 C.3   157  ASP157      0.1805
      3  C        -37.5810  -28.4710  -22.6340 C.2   157  ASP157      0.2598
      4  O        -38.3570  -27.6320  -23.1080 O.2   157  ASP157     -0.2718
      5  CB       -37.7350  -30.9590  -22.0210 C.3   157  ASP157      0.1424
      6  CG       -38.3850  -31.4300  -23.3090 C.2   157  ASP157      0.3668
      7  OD1      -38.6370  -30.6030  -24.2030 O.co2 157  ASP157     -0.2456
      8  OD2      -38.6370  -32.6330  -23.4560 O.co2 157  ASP157     -0.2456
      9  N        -36.2840  -28.4830  -22.9430 N.am  158  MET158     -0.1965
     10  CA       -35.7620  -27.4440  -23.8250 C.3   158  MET158      0.1736
     11  C        -36.2460  -27.6250  -25.2870 C.2   158  MET158      0.2616
     12  O        -36.3850  -26.6400  -26.0180 O.2   158  MET158     -0.2715
     13  CB       -34.2280  -27.3310  -23.7370 C.3   158  MET158      0.0427
     14  CG       -33.5880  -26.2470  -24.6610 C.3   158  MET158      0.0599
     15  SD       -34.3100  -24.5770  -24.5010 S.3   158  MET158     -0.1393
     16  CE       -33.1310  -23.7600  -23.3980 C.3   158  MET158      0.0692
     17  N        -36.4810  -28.8630  -25.7120 N.am  159  VAL159     -0.1977
     18  CA       -37.0720  -29.1070  -27.0390 C.3   159  VAL159      0.1596
     19  C        -38.4710  -28.4750  -27.1160 C.2   159  VAL159      0.2287
     20  O        -38.7900  -27.7750  -28.0830 O.2   159  VAL159     -0.2864
     21  CB       -37.0800  -30.6090  -27.4400 C.3   159  VAL159      0.0276
     22  CG1      -37.9030  -30.8160  -28.7020 C.3   159  VAL159      0.0022
     23  CG2      -35.6290  -31.0530  -27.7250 C.3   159  VAL159      0.0022
     24  N        -14.5200  -35.4890  -33.5880 N.3   242  LYS242     -0.1245
     25  CA       -15.3110  -36.5470  -34.2230 C.3   242  LYS242      0.1561
     26  C        -14.4310  -37.5590  -35.0030 C.2   242  LYS242      0.2260
     27  O        -14.6360  -38.7810  -34.9340 O.2   242  LYS242     -0.2867
     28  CB       -16.4030  -35.9800  -35.1190 C.3   242  LYS242      0.0271
     29  CG       -17.3320  -37.1010  -35.6040 C.3   242  LYS242      0.0035
     30  CD       -18.3500  -36.5810  -36.5800 C.3   242  LYS242      0.0206
     31  CE       -19.3750  -37.6480  -36.8800 C.3   242  LYS242      0.1093
     32  NZ       -20.3610  -37.0820  -37.8460 N.3   242  LYS242     -0.1314
     33  N        -21.0450  -46.0180  -36.0160 N.3   255  PHE255     -0.1227
     34  CA       -20.7010  -44.5980  -36.0900 C.3   255  PHE255      0.1736
     35  C        -21.0590  -43.9160  -34.7780 C.2   255  PHE255      0.2595
     36  O        -21.8290  -44.4520  -33.9790 O.2   255  PHE255     -0.2718
     37  CB       -21.4500  -43.9120  -37.2490 C.3   255  PHE255      0.0547
     38  CG       -22.9440  -43.8230  -37.0340 C.ar  255  PHE255     -0.0202
     39  CD1      -23.4910  -42.7860  -36.2650 C.ar  255  PHE255     -0.0042
     40  CD2      -23.7970  -44.7840  -37.5880 C.ar  255  PHE255     -0.0042
     41  CE1      -24.8670  -42.7100  -36.0430 C.ar  255  PHE255     -0.0003
     42  CE2      -25.1830  -44.7270  -37.3810 C.ar  255  PHE255     -0.0003
     43  CZ       -25.7200  -43.6720  -36.6080 C.ar  255  PHE255     -0.0000
     44  N        -20.5100  -42.7270  -34.5850 N.am  256  VAL256     -0.1966
     45  CA       -20.9070  -41.8580  -33.4710 C.3   256  VAL256      0.1727
     46  C        -21.1330  -40.4750  -34.0630 C.2   256  VAL256      0.2617
     47  O        -20.7210  -40.2020  -35.1910 O.2   256  VAL256     -0.2715
     48  CB       -19.8310  -41.8000  -32.3470 C.3   256  VAL256      0.0290
     49  CG1      -19.7340  -43.1530  -31.6240 C.3   256  VAL256      0.0023
     50  CG2      -18.4600  -41.3440  -32.8930 C.3   256  VAL256      0.0023
     51  N        -21.7820  -39.6000  -33.3090 N.am  257  SER257     -0.1936
     52  CA       -22.0490  -38.2550  -33.7910 C.3   257  SER257      0.2055
     53  C        -21.0480  -37.2520  -33.2210 C.2   257  SER257      0.2644
     54  O        -20.2850  -37.5630  -32.3030 O.2   257  SER257     -0.2714
     55  CB       -23.4650  -37.8560  -33.3630 C.3   257  SER257      0.2130
     56  OG       -23.4920  -37.7240  -31.9400 O.3   257  SER257     -0.2179
     57  N        -21.0580  -36.0430  -33.7770 N.am  258  THR258     -0.1936
     58  CA       -20.3180  -34.9020  -33.2370 C.3   258  THR258      0.2028
     59  C        -20.6240  -34.6840  -31.7380 C.2   258  THR258      0.2642
     60  O        -19.7130  -34.5370  -30.9060 O.2   258  THR258     -0.2714
     61  CB       -20.6660  -33.6470  -34.0870 C.3   258  THR258      0.1808
     62  OG1      -20.2030  -33.8740  -35.4270 O.3   258  THR258     -0.2208
     63  CG2      -19.9780  -32.4390  -33.5750 C.3   258  THR258      0.0379
     64  N        -21.9150  -34.7070  -31.4100 N.am  259  ASP259     -0.1957
     65  CA       -22.3860  -34.5790  -30.0300 C.3   259  ASP259      0.1840
     66  C        -21.8040  -35.6940  -29.1430 C.2   259  ASP259      0.2622
     67  O        -21.2920  -35.4240  -28.0430 O.2   259  ASP259     -0.2715
     68  CB       -23.9150  -34.5770  -30.0120 C.3   259  ASP259      0.1450
     69  CG       -24.4910  -34.0060  -28.7330 C.2   259  ASP259      0.3671
     70  OD1      -24.3020  -34.6340  -27.6760 O.co2 259  ASP259     -0.2456
     71  OD2      -25.1450  -32.9360  -28.8040 O.co2 259  ASP259     -0.2456
     72  N        -21.8590  -36.9370  -29.6160 N.am  260  ASP260     -0.1971
     73  CA       -21.2490  -38.0420  -28.8670 C.3   260  ASP260      0.1709
     74  C        -19.7810  -37.7510  -28.5820 C.2   260  ASP260      0.2293
     75  O        -19.3020  -38.0020  -27.4650 O.2   260  ASP260     -0.2864
     76  CB       -21.2810  -39.3690  -29.6390 C.3   260  ASP260      0.1436
     77  CG       -22.6700  -39.9110  -29.8900 C.2   260  ASP260      0.3671
     78  OD1      -23.6690  -39.5530  -29.2010 O.co2 260  ASP260     -0.2456
     79  OD2      -22.7510  -40.7440  -30.8230 O.co2 260  ASP260     -0.2456
     80  N        -26.8290  -38.5940  -19.3680 N.3   288  ARG288     -0.1231
     81  CA       -26.9530  -37.8050  -20.5860 C.3   288  ARG288      0.1694
     82  C        -28.4260  -37.5800  -20.9350 C.2   288  ARG288      0.2592
     83  O        -29.1600  -38.5390  -21.1010 O.2   288  ARG288     -0.2718
     84  CB       -26.2460  -38.5140  -21.7410 C.3   288  ARG288      0.0321
     85  CG       -26.1990  -37.6560  -23.0390 C.3   288  ARG288      0.0489
     86  CD       -25.8140  -38.5450  -24.2220 C.3   288  ARG288      0.2205
     87  NE       -25.3250  -37.7530  -25.3680 N.pl3 288  ARG288     -0.0865
     88  CZ       -24.8810  -38.3000  -26.5050 C.cat 288  ARG288      0.5346
     89  NH1      -24.9110  -39.6250  -26.6550 N.pl3 288  ARG288      0.1354
     90  NH2      -24.4110  -37.5300  -27.4800 N.pl3 288  ARG288      0.1354
     91  N        -28.8440  -36.3200  -21.0620 N.am  289  ALA289     -0.1966
     92  CA       -30.2590  -36.0360  -21.3740 C.3   289  ALA289      0.1728
     93  C        -30.5370  -36.3590  -22.8360 C.2   289  ALA289      0.2616
     94  O        -29.6930  -36.0840  -23.7190 O.2   289  ALA289     -0.2715
     95  CB       -30.6380  -34.5560  -21.0600 C.3   289  ALA289      0.0334
     96  N        -31.7060  -36.9510  -23.0860 N.am  290  VAL290     -0.1963
     97  CA       -32.0760  -37.3940  -24.4210 C.3   290  VAL290      0.1727
     98  C        -33.5580  -37.0220  -24.6400 C.2   290  VAL290      0.2616
     99  O        -34.4010  -37.3010  -23.8000 O.2   290  VAL290     -0.2715
    100  CB       -31.8900  -38.9260  -24.5700 C.3   290  VAL290      0.0290
    101  CG1      -32.3140  -39.4180  -26.0010 C.3   290  VAL290      0.0023
    102  CG2      -30.4220  -39.3160  -24.3300 C.3   290  VAL290      0.0023
    103  N        -33.8380  -36.3590  -25.7540 N.am  291  ASP291     -0.1971
    104  CA       -35.2210  -36.0840  -26.2000 C.3   291  ASP291      0.1709
    105  C        -35.8770  -37.4050  -26.5920 C.2   291  ASP291      0.2293
    106  O        -35.3460  -38.1950  -27.4040 O.2   291  ASP291     -0.2864
    107  CB       -35.1720  -35.0800  -27.3690 C.3   291  ASP291      0.1436
    108  CG       -36.5230  -34.8340  -28.0170 C.2   291  ASP291      0.3671
    109  OD1      -37.5690  -35.0910  -27.3870 O.co2 291  ASP291     -0.2456
    110  OD2      -36.5180  -34.3680  -29.1750 O.co2 291  ASP291     -0.2456
    111  N        -38.5960  -36.2050  -22.0700 N.3   307  GLN307     -0.1245
    112  CA       -37.1430  -36.2750  -22.0290 C.3   307  GLN307      0.1566
    113  C        -36.8110  -37.3970  -21.0460 C.2   307  GLN307      0.2260
    114  O        -37.5600  -37.6410  -20.1050 O.2   307  GLN307     -0.2867
    115  CB       -36.5960  -34.9550  -21.4760 C.3   307  GLN307      0.0367
    116  CG       -35.1040  -34.7610  -21.6180 C.3   307  GLN307      0.0905
    117  CD       -34.5100  -34.0450  -20.4230 C.2   307  GLN307      0.2608
    118  OE1      -34.8090  -32.8710  -20.1660 O.2   307  GLN307     -0.2717
    119  NE2      -33.6780  -34.7620  -19.6620 N.am  307  GLN307     -0.0878
    120  N        -23.1620  -43.8070  -27.4610 N.3   332  ARG332     -0.1245
    121  CA       -23.9790  -44.1900  -28.6250 C.3   332  ARG332      0.1563
    122  C        -24.7100  -45.5220  -28.3870 C.2   332  ARG332      0.2260
    123  O        -25.8540  -45.7170  -28.8550 O.2   332  ARG332     -0.2867
    124  CB       -23.0740  -44.2360  -29.8930 C.3   332  ARG332      0.0307
    125  CG       -23.7460  -44.6560  -31.2140 C.3   332  ARG332      0.0489
    126  CD       -25.0080  -43.8920  -31.5700 C.3   332  ARG332      0.2205
    127  NE       -24.8730  -42.4400  -31.4670 N.pl3 332  ARG332     -0.0865
    128  CZ       -25.7890  -41.5870  -31.9340 C.cat 332  ARG332      0.5346
    129  NH1      -25.6320  -40.2810  -31.7760 N.pl3 332  ARG332      0.1354
    130  NH2      -26.8730  -42.0510  -32.5520 N.pl3 332  ARG332      0.1354
    131  N        -28.5310  -45.4670  -27.3230 N.3   335  LEU335     -0.1245
    132  CA       -29.4780  -44.6590  -28.0740 C.3   335  LEU335      0.1561
    133  C        -30.4390  -45.4260  -29.0020 C.2   335  LEU335      0.2260
    134  O        -31.0860  -44.8130  -29.8290 O.2   335  LEU335     -0.2867
    135  CB       -28.7410  -43.5490  -28.8350 C.3   335  LEU335      0.0270
    136  CG       -28.1020  -42.4600  -27.9660 C.3   335  LEU335      0.0019
    137  CD1      -27.3200  -41.4730  -28.8130 C.3   335  LEU335      0.0001
    138  CD2      -29.1440  -41.7400  -27.0740 C.3   335  LEU335      0.0001
    139  N        -26.7650  -31.9860  -20.4340 N.3   375  SER375     -0.1202
    140  CA       -27.8880  -31.8420  -21.3420 C.3   375  SER375      0.2020
    141  C        -27.4800  -31.0110  -22.5590 C.2   375  SER375      0.2619
    142  O        -27.1610  -29.8250  -22.4270 O.2   375  SER375     -0.2717
    143  CB       -29.0650  -31.1560  -20.6440 C.3   375  SER375      0.2103
    144  OG       -30.1970  -31.2050  -21.5160 O.3   375  SER375     -0.2182
    145  N        -27.5410  -31.6270  -23.7430 N.am  376  SER376     -0.1937
    146  CA       -27.1910  -30.9430  -24.9830 C.3   376  SER376      0.2055
    147  C        -28.4060  -30.2610  -25.5680 C.2   376  SER376      0.2643
    148  O        -29.4130  -30.9270  -25.8740 O.2   376  SER376     -0.2714
    149  CB       -26.6970  -31.9400  -26.0200 C.3   376  SER376      0.2130
    150  OG       -26.4240  -31.2710  -27.2360 O.3   376  SER376     -0.2179
    151  N        -28.2920  -28.9460  -25.7470 N.am  377  TRP377     -0.1973
    152  CA       -29.3050  -28.1750  -26.4880 C.3   377  TRP377      0.1640
    153  C        -28.8610  -27.9330  -27.9130 C.2   377  TRP377      0.2290
    154  O        -29.3920  -27.0500  -28.5940 O.2   377  TRP377     -0.2864
    155  CB       -29.5580  -26.8260  -25.7900 C.3   377  TRP377      0.0576
    156  CG       -30.0210  -26.9620  -24.3710 C.ar  377  TRP377      0.0006
    157  CD1      -30.5740  -28.0690  -23.7980 C.ar  377  TRP377      0.0946
    158  CD2      -30.0210  -25.9400  -23.3580 C.ar  377  TRP377      0.0152
    159  NE1      -30.9090  -27.8100  -22.4840 N.ar  377  TRP377     -0.2442
    160  CE2      -30.5810  -26.5130  -22.1870 C.ar  377  TRP377      0.0810
    161  CE3      -29.5980  -24.5980  -23.3230 C.ar  377  TRP377      0.0012
    162  CZ2      -30.7300  -25.7890  -20.9810 C.ar  377  TRP377      0.0191
    163  CZ3      -29.7440  -23.8790  -22.1320 C.ar  377  TRP377      0.0001
    164  CH2      -30.3100  -24.4830  -20.9750 C.ar  377  TRP377      0.0015
    165  N        -29.1540  -29.2120  -30.8660 N.3   379  LYS379     -0.1245
    166  CA       -30.1410  -29.3530  -31.9430 C.3   379  LYS379      0.1561
    167  C        -31.2750  -28.3100  -32.0080 C.2   379  LYS379      0.2260
    168  O        -32.0150  -28.2580  -32.9280 O.2   379  LYS379     -0.2867
    169  CB       -30.7930  -30.7150  -31.9080 C.3   379  LYS379      0.0271
    170  CG       -29.9510  -31.8190  -32.3830 C.3   379  LYS379      0.0035
    171  CD       -30.7870  -33.0640  -32.8370 C.3   379  LYS379      0.0206
    172  CE       -30.7020  -34.2400  -31.8960 C.3   379  LYS379      0.1093
    173  NZ       -31.0740  -35.5710  -32.5270 N.3   379  LYS379     -0.1314
@<TRIPOS>BOND
     1    32    31    1
     2    40    42   ar
     3    40    38   ar
     4    42    43   ar
     5    37    38    1
     6    37    34    1
     7    38    39   ar
     8    31    30    1
     9    43    41   ar
    10    30    29    1
    11    39    41   ar
    12    34    33    1
    13    34    35    1
    14    29    28    1
    15    62    61    1
    16    47    46    2
    17    28    25    1
    18    26    27    2
    19    26    25    1
    20    35    44   am
    21    35    36    2
    22    44    45    1
    23    25    24    1
    24    61    63    1
    25    61    58    1
    26    46    45    1
    27    46    51   am
    28    52    55    1
    29    52    51    1
    30    52    53    1
    31    57    58    1
    32    57    53   am
    33    45    48    1
    34    55    56    1
    35    58    59    1
    36    53    54    2
    37   168   167    2
    38    50    48    1
    39   171   170    1
    40   171   172    1
    41   130   128    1
    42   173   172    1
    43   170   169    1
    44    48    49    1
    45   167   166    1
    46   166   169    1
    47   166   165    1
    48   128   129    1
    49   128   127    2
    50    59    64   am
    51    59    60    2
    52   126   127    1
    53   126   125    1
    54    64    65    1
    55   125   124    1
    56    79    77   ar
    57    65    68    1
    58    65    66    1
    59    68    69    1
    60   124   121    1
    61    77    76    1
    62    77    78   ar
    63   134   133    2
    64    76    73    1
    65    72    66   am
    66    72    73    1
    67   110   108   ar
    68    66    67    2
    69   133   132    1
    70    73    74    1
    71   123   122    2
    72   135   132    1
    73   135   136    1
    74   137   136    1
    75    71    69   ar
    76    69    70   ar
    77    22    21    1
    78   121   122    1
    79   121   120    1
    80   154   153    2
    81    74    75    2
    82    20    19    2
    83   132   131    1
    84   108   109   ar
    85   108   107    1
    86   136   138    1
    87   153   152    1
    88    23    21    1
    89    90    88    1
    90    21    18    1
    91   106   105    2
    92   107   104    1
    93   150   149    1
    94    19    18    1
    95    18    17    1
    96    89    88    1
    97   105   104    1
    98    88    87    2
    99   152   155    1
   100   152   151    1
   101   104   103    1
   102   149   146    1
   103    12    11    2
   104   101   100    1
   105   148   147    2
   106   155   156    1
   107   103    98   am
   108   151   147   am
   109    17    11   am
   110   147   146    1
   111    87    86    1
   112    11    10    1
   113   146   145    1
   114    14    15    1
   115    14    13    1
   116    98    97    1
   117    98    99    2
   118   100    97    1
   119   100   102    1
   120    15    16    1
   121    97    96    1
   122   156   157   ar
   123   156   158   ar
   124    86    85    1
   125     7     6   ar
   126    10    13    1
   127    10     9    1
   128   157   159   ar
   129   145   141   am
   130    94    93    2
   131     8     6   ar
   132   158   161   ar
   133   158   160   ar
   134   161   163   ar
   135     6     5    1
   136     4     3    2
   137    96    93   am
   138    85    84    1
   139     9     3   am
   140    93    92    1
   141     3     2    1
   142   141   142    2
   143   141   140    1
   144   159   160   ar
   145   160   162   ar
   146   163   164   ar
   147   111   112    1
   148   112   115    1
   149   112   113    1
   150     5     2    1
   151    84    81    1
   152     2     1    1
   153   116   115    1
   154   116   117    1
   155   144   143    1
   156    92    91    1
   157    92    95    1
   158   140   143    1
   159   140   139    1
   160    83    82    2
   161    91    82   am
   162   113   114    2
   163   162   164   ar
   164    82    81    1
   165    81    80    1
   166   117   118    2
   167   117   119   am
