@<TRIPOS>MOLECULE
tmp/3b2tA00.pdb
 138 128 0 0 0
SMALL
GASTEIGER

@<TRIPOS>ATOM
      1  N         23.5600  -29.7010  -25.1380 N.3    24  LEU24      -0.1231
      2  CA        23.2860  -29.7540  -26.5730 C.3    24  LEU24       0.1693
      3  C         24.4860  -29.2760  -27.3830 C.2    24  LEU24       0.2593
      4  O         24.5650  -29.5090  -28.5870 O.2    24  LEU24      -0.2718
      5  CB        22.0560  -28.9050  -26.9130 C.3    24  LEU24       0.0284
      6  CG        20.7050  -29.4460  -26.4430 C.3    24  LEU24       0.0019
      7  CD1       19.6190  -28.4140  -26.6780 C.3    24  LEU24       0.0001
      8  CD2       20.3910  -30.7290  -27.1910 C.3    24  LEU24       0.0001
      9  N         25.4200  -28.6050  -26.7160 N.am   25  GLY25      -0.1942
     10  CA        26.6090  -28.1160  -27.3920 C.3    25  GLY25       0.2014
     11  C         27.1380  -26.8040  -26.8410 C.2    25  GLY25       0.2639
     12  O         26.4410  -26.1000  -26.1030 O.2    25  GLY25      -0.2714
     13  N         28.3810  -26.4870  -27.2000 N.am   26  GLU26      -0.1963
     14  CA        29.0440  -25.2580  -26.7710 C.3    26  GLU26       0.1733
     15  C         29.1240  -24.2700  -27.9300 C.2    26  GLU26       0.2616
     16  O         29.4490  -24.6460  -29.0570 O.2    26  GLU26      -0.2715
     17  CB        30.4590  -25.5600  -26.2700 C.3    26  GLU26       0.0429
     18  CG        30.6280  -25.4720  -24.7600 C.3    26  GLU26       0.1163
     19  CD        29.8560  -26.5420  -24.0050 C.2    26  GLU26       0.3649
     20  OE1       29.8970  -26.5280  -22.7540 O.co2  26  GLU26      -0.2457
     21  OE2       29.2130  -27.3960  -24.6560 O.co2  26  GLU26      -0.2457
     22  N         28.8250  -23.0060  -27.6470 N.am   27  GLY27      -0.1955
     23  CA        28.8640  -21.9870  -28.6810 C.3    27  GLY27       0.1869
     24  C         29.9870  -20.9990  -28.4610 C.2    27  GLY27       0.2309
     25  O         29.9910  -19.9130  -29.0390 O.2    27  GLY27      -0.2863
     26  N         28.7430  -19.4730  -24.7690 N.3    30  GLY30      -0.1225
     27  CA        27.9330  -20.0260  -23.7010 C.3    30  GLY30       0.1811
     28  C         27.6140  -21.4730  -24.0060 C.2    30  GLY30       0.2280
     29  O         28.2990  -22.1100  -24.8070 O.2    30  GLY30      -0.2866
     30  N         24.2550  -24.5670  -24.3390 N.3    32  VAL32      -0.1245
     31  CA        22.8420  -24.8890  -24.3260 C.3    32  VAL32       0.1561
     32  C         22.7220  -26.3100  -23.8050 C.2    32  VAL32       0.2260
     33  O         23.5430  -27.1570  -24.1320 O.2    32  VAL32      -0.2867
     34  CB        22.2250  -24.8180  -25.7400 C.3    32  VAL32       0.0252
     35  CG1       20.7180  -25.1160  -25.6570 C.3    32  VAL32       0.0019
     36  CG2       22.4590  -23.4170  -26.3460 C.3    32  VAL32       0.0019
     37  N         15.0680  -26.2780  -23.9930 N.3    49  ALA49      -0.1245
     38  CA        16.5010  -26.0720  -24.1870 C.3    49  ALA49       0.1562
     39  C         16.8180  -24.8620  -23.3230 C.2    49  ALA49       0.2260
     40  O         16.0490  -23.9020  -23.3060 O.2    49  ALA49      -0.2867
     41  CB        16.8100  -25.7540  -25.6540 C.3    49  ALA49       0.0290
     42  N         19.7220  -21.9000  -22.3740 N.3    51  LYS51      -0.1245
     43  CA        20.9880  -21.2550  -22.7330 C.3    51  LYS51       0.1561
     44  C         21.5230  -20.5860  -21.4580 C.2    51  LYS51       0.2260
     45  O         20.7670  -19.9600  -20.7090 O.2    51  LYS51      -0.2867
     46  CB        20.7680  -20.2010  -23.8320 C.3    51  LYS51       0.0271
     47  CG        20.0140  -20.7160  -25.0590 C.3    51  LYS51       0.0035
     48  CD        19.9040  -19.6300  -26.1390 C.3    51  LYS51       0.0206
     49  CE        21.2070  -19.4530  -26.9110 C.3    51  LYS51       0.1093
     50  NZ        22.4000  -19.2070  -26.0490 N.3    51  LYS51      -0.1314
     51  N         12.1620  -19.4750  -33.1320 N.3    82  ILE82      -0.1245
     52  CA        12.3120  -20.2670  -31.9190 C.3    82  ILE82       0.1561
     53  C         11.5920  -19.5060  -30.7870 C.2    82  ILE82       0.2260
     54  O         11.8150  -18.3180  -30.5880 O.2    82  ILE82      -0.2867
     55  CB        13.8100  -20.4940  -31.6120 C.3    82  ILE82       0.0252
     56  CG1       13.9600  -21.7480  -30.7700 C.3    82  ILE82       0.0019
     57  CG2       14.4140  -19.2760  -30.9450 C.3    82  ILE82       0.0019
     58  CD1       13.3420  -22.9930  -31.4450 C.3    82  ILE82       0.0001
     59  N         14.1260  -21.8290  -23.8330 N.3    98  VAL98      -0.1231
     60  CA        13.5040  -21.7650  -25.1400 C.3    98  VAL98       0.1692
     61  C         13.0350  -23.1240  -25.6490 C.2    98  VAL98       0.2592
     62  O         13.4290  -24.1760  -25.1450 O.2    98  VAL98      -0.2718
     63  CB        14.4920  -21.1760  -26.1830 C.3    98  VAL98       0.0266
     64  CG1       15.0660  -19.8370  -25.6810 C.3    98  VAL98       0.0020
     65  CG2       15.5920  -22.1710  -26.4590 C.3    98  VAL98       0.0020
     66  N         12.2050  -23.0720  -26.6820 N.am   99  GLU99      -0.1966
     67  CA        11.6840  -24.2620  -27.3240 C.3    99  GLU99       0.1733
     68  C         12.8330  -25.1740  -27.7410 C.2    99  GLU99       0.2616
     69  O         13.8550  -24.7260  -28.2640 O.2    99  GLU99      -0.2715
     70  CB        10.8770  -23.8500  -28.5560 C.3    99  GLU99       0.0429
     71  CG        10.2180  -24.9910  -29.2970 C.3    99  GLU99       0.1163
     72  CD         9.4760  -24.5180  -30.5350 C.2    99  GLU99       0.3649
     73  OE1        8.7970  -25.3540  -31.1700 O.co2  99  GLU99      -0.2457
     74  OE2        9.5820  -23.3100  -30.8700 O.co2  99  GLU99      -0.2457
     75  N         12.6700  -26.4680  -27.4900 N.am  100  TYR100     -0.1960
     76  CA        13.6730  -27.4460  -27.8650 C.3   100  TYR100      0.1771
     77  C         13.3590  -27.9470  -29.2880 C.2   100  TYR100      0.2619
     78  O         12.2190  -28.3540  -29.5710 O.2   100  TYR100     -0.2715
     79  CB        13.6220  -28.6170  -26.8880 C.3   100  TYR100      0.0574
     80  CG        14.4110  -29.8120  -27.3320 C.ar  100  TYR100     -0.0198
     81  CD1       15.7960  -29.7640  -27.4050 C.ar  100  TYR100     -0.0009
     82  CD2       13.7710  -31.0020  -27.6850 C.ar  100  TYR100     -0.0009
     83  CE1       16.5310  -30.8620  -27.8110 C.ar  100  TYR100      0.0417
     84  CE2       14.5020  -32.1080  -28.1000 C.ar  100  TYR100      0.0417
     85  CZ        15.8760  -32.0300  -28.1560 C.ar  100  TYR100      0.1957
     86  OH        16.6130  -33.1250  -28.5360 O.3   100  TYR100     -0.2866
     87  N         14.3620  -27.9230  -30.1620 N.am  101  ALA101     -0.1977
     88  CA        14.2200  -28.3780  -31.5520 C.3   101  ALA101      0.1597
     89  C         15.0270  -29.6660  -31.6860 C.2   101  ALA101      0.2287
     90  O         16.2460  -29.6320  -31.8050 O.2   101  ALA101     -0.2864
     91  CB        14.7560  -27.3110  -32.5100 C.3   101  ALA101      0.0319
     92  N         18.0130  -30.3800  -34.5140 N.3   104  GLY104     -0.1210
     93  CA        19.2280  -29.5980  -34.6010 C.3   104  GLY104      0.1956
     94  C         19.1980  -28.4410  -35.5720 C.2   104  GLY104      0.2611
     95  O         18.1250  -28.0130  -36.0110 O.2   104  GLY104     -0.2717
     96  N         20.3810  -27.9400  -35.9120 N.am  105  ASN105     -0.1974
     97  CA        20.4680  -26.7970  -36.8160 C.3   105  ASN105      0.1688
     98  C         20.2760  -27.2340  -38.2570 C.2   105  ASN105      0.2292
     99  O         20.4720  -28.4080  -38.6060 O.2   105  ASN105     -0.2864
    100  CB        21.7940  -26.0450  -36.6230 C.3   105  ASN105      0.1181
    101  CG        22.9900  -26.8250  -37.0780 C.2   105  ASN105      0.2629
    102  OD1       23.1950  -27.0360  -38.2710 O.2   105  ASN105     -0.2716
    103  ND2       23.8110  -27.2550  -36.1230 N.am  105  ASN105     -0.0877
    104  N         23.3720  -22.4820  -39.7890 N.3   150  ARG150     -0.1231
    105  CA        23.7230  -22.9350  -38.4420 C.3   150  ARG150      0.1694
    106  C         22.8190  -22.2590  -37.4130 C.2   150  ARG150      0.2592
    107  O         22.6200  -22.7900  -36.3130 O.2   150  ARG150     -0.2718
    108  CB        25.1760  -22.5830  -38.0890 C.3   150  ARG150      0.0321
    109  CG        26.2710  -23.4090  -38.7370 C.3   150  ARG150      0.0489
    110  CD        27.6020  -23.0110  -38.0780 C.3   150  ARG150      0.2205
    111  NE        28.7650  -23.7780  -38.5200 N.pl3 150  ARG150     -0.0865
    112  CZ        29.5950  -23.4010  -39.4890 C.cat 150  ARG150      0.5346
    113  NH1       29.3990  -22.2530  -40.1390 N.pl3 150  ARG150      0.1354
    114  NH2       30.6340  -24.1720  -39.8020 N.pl3 150  ARG150      0.1354
    115  N         22.2800  -21.0840  -37.7520 N.am  151  ASN151     -0.1974
    116  CA        21.4200  -20.3520  -36.8230 C.3   151  ASN151      0.1688
    117  C         19.9150  -20.5590  -37.0570 C.2   151  ASN151      0.2292
    118  O         19.0870  -19.7550  -36.6330 O.2   151  ASN151     -0.2864
    119  CB        21.7870  -18.8510  -36.8370 C.3   151  ASN151      0.1181
    120  CG        23.1550  -18.5750  -36.1800 C.2   151  ASN151      0.2629
    121  OD1       23.8140  -17.5590  -36.4600 O.2   151  ASN151     -0.2716
    122  ND2       23.5750  -19.4690  -35.2940 N.am  151  ASN151     -0.0877
    123  N         17.0280  -23.6310  -36.5910 N.3   153  LEU153     -0.1245
    124  CA        16.8280  -24.9190  -35.9320 C.3   153  LEU153      0.1561
    125  C         15.6300  -25.6170  -36.5670 C.2   153  LEU153      0.2260
    126  O         14.7400  -24.9540  -37.1150 O.2   153  LEU153     -0.2867
    127  CB        16.5780  -24.7020  -34.4350 C.3   153  LEU153      0.0270
    128  CG        17.7670  -24.1510  -33.6400 C.3   153  LEU153      0.0019
    129  CD1       17.3180  -23.6800  -32.2630 C.3   153  LEU153      0.0001
    130  CD2       18.8280  -25.2170  -33.5370 C.3   153  LEU153      0.0001
    131  N         19.1080  -17.7140  -32.4890 N.3   164  ASP164     -0.1239
    132  CA        20.3010  -16.9040  -32.2060 C.3   164  ASP164      0.1674
    133  C         20.1520  -15.4050  -32.4380 C.2   164  ASP164      0.2266
    134  O         20.7140  -14.8430  -33.3890 O.2   164  ASP164     -0.2867
    135  CB        21.4860  -17.4340  -33.0160 C.3   164  ASP164      0.1410
    136  CG        21.8510  -18.8580  -32.6460 C.2   164  ASP164      0.3668
    137  OD1       21.2830  -19.8020  -33.2350 O.co2 164  ASP164     -0.2456
    138  OD2       22.6970  -19.0490  -31.7500 O.co2 164  ASP164     -0.2456
@<TRIPOS>BOND
     1   113   112    1
     2   114   112    1
     3   104   105    1
     4   112   111    2
     5   109   108    1
     6   109   110    1
     7    99    98    2
     8   111   110    1
     9   105   108    1
    10   105   106    1
    11   102   101    2
    12    98    97    1
    13   115   106   am
    14   115   116    1
    15   106   107    2
    16   126   125    2
    17   101   100    1
    18   101   103   am
    19   117   116    1
    20   117   118    2
    21   119   116    1
    22   119   120    1
    23    97   100    1
    24    97    96    1
    25   123   124    1
    26   125   124    1
    27   121   120    2
    28   120   122   am
    29    95    94    2
    30   124   127    1
    31    96    94   am
    32    94    93    1
    33    93    92    1
    34   127   128    1
    35   128   130    1
    36   128   129    1
    37   134   133    2
    38   137   136   ar
    39    51    52    1
    40   135   136    1
    41   135   132    1
    42   136   138   ar
    43    91    88    1
    44   131   132    1
    45   133   132    1
    46    52    55    1
    47    52    53    1
    48    90    89    2
    49    89    88    1
    50    55    57    1
    51    55    56    1
    52    88    87    1
    53    58    56    1
    54    73    72   ar
    55    74    72   ar
    56    53    54    2
    57    72    71    1
    58    87    77   am
    59    78    77    2
    60    71    70    1
    61    77    76    1
    62    16    15    2
    63    25    24    2
    64    23    24    1
    65    23    22    1
    66     4     3    2
    67    70    67    1
    68    86    85    1
    69    69    68    2
    70    85    84   ar
    71    85    83   ar
    72    84    82   ar
    73    15    22   am
    74    15    14    1
    75    76    75    1
    76    76    79    1
    77    83    81   ar
    78    68    75   am
    79    68    67    1
    80    82    80   ar
    81    81    80   ar
    82    10    11    1
    83    10     9    1
    84     3     9   am
    85     3     2    1
    86    80    79    1
    87    67    66    1
    88    13    11   am
    89    13    14    1
    90     8     6    1
    91     5     2    1
    92     5     6    1
    93    49    48    1
    94    49    50    1
    95    11    12    2
    96    14    17    1
    97    66    61   am
    98     7     6    1
    99     2     1    1
   100    65    63    1
   101    36    34    1
   102    17    18    1
   103    63    64    1
   104    63    60    1
   105    48    47    1
   106    34    35    1
   107    34    31    1
   108    41    38    1
   109    61    62    2
   110    61    60    1
   111    60    59    1
   112    47    46    1
   113    29    28    2
   114    26    27    1
   115    18    19    1
   116    21    19   ar
   117    30    31    1
   118    31    32    1
   119    38    37    1
   120    38    39    1
   121    33    32    2
   122    28    27    1
   123    19    20   ar
   124    46    43    1
   125    39    40    2
   126    43    42    1
   127    43    44    1
   128    44    45    2
