@<TRIPOS>MOLECULE
tmp/3b2uX00.pdb
 100 93 0 0 0
SMALL
GASTEIGER

@<TRIPOS>ATOM
      1  N         25.8130   47.9860  -71.0770 N.3    11  GLU11      -0.1231
      2  CA        26.2380   47.5080  -69.7520 C.3    11  GLU11       0.1699
      3  C         25.0580   47.0200  -68.9080 C.2    11  GLU11       0.2592
      4  O         25.2320   46.2370  -67.9770 O.2    11  GLU11      -0.2718
      5  CB        26.9790   48.6280  -69.0220 C.3    11  GLU11       0.0402
      6  CG        26.7540   49.9970  -69.6880 C.3    11  GLU11       0.1161
      7  CD        27.1260   51.1960  -68.8160 C.2    11  GLU11       0.3649
      8  OE1       27.0840   52.3190  -69.3690 O.co2  11  GLU11      -0.2457
      9  OE2       27.4430   51.0370  -67.5980 O.co2  11  GLU11      -0.2457
     10  N         23.8580   47.4770  -69.2490 N.am   12  PHE12      -0.1976
     11  CA        22.6560   47.1600  -68.4860 C.3    12  PHE12       0.1639
     12  C         21.7260   46.2080  -69.2440 C.2    12  PHE12       0.2290
     13  O         20.5340   46.1100  -68.9270 O.2    12  PHE12      -0.2864
     14  CB        21.9160   48.4550  -68.1120 C.3    12  PHE12       0.0560
     15  CG        22.8120   49.5310  -67.5570 C.ar   12  PHE12      -0.0200
     16  CD1       23.0200   50.7140  -68.2630 C.ar   12  PHE12      -0.0042
     17  CD2       23.4650   49.3570  -66.3350 C.ar   12  PHE12      -0.0042
     18  CE1       23.8610   51.7100  -67.7560 C.ar   12  PHE12      -0.0003
     19  CE2       24.3090   50.3450  -65.8250 C.ar   12  PHE12      -0.0003
     20  CZ        24.5040   51.5250  -66.5340 C.ar   12  PHE12      -0.0000
     21  N         21.2140   43.1120  -69.2970 N.3    14  ASP14      -0.1225
     22  CA        20.5830   42.0430  -68.5300 C.3    14  ASP14       0.1805
     23  C         19.9600   42.5320  -67.2060 C.2    14  ASP14       0.2598
     24  O         19.4240   41.7360  -66.4350 O.2    14  ASP14      -0.2718
     25  CB        21.6000   40.9210  -68.2790 C.3    14  ASP14       0.1424
     26  CG        22.1220   40.2980  -69.5760 C.2    14  ASP14       0.3668
     27  OD1       21.3150   39.7290  -70.3540 O.co2  14  ASP14      -0.2456
     28  OD2       23.3460   40.3720  -69.8110 O.co2  14  ASP14      -0.2456
     29  N         20.0260   43.8390  -66.9620 N.am   15  SER15      -0.1938
     30  CA        19.5270   44.4350  -65.7310 C.3    15  SER15       0.2055
     31  C         18.0270   44.7100  -65.7860 C.2    15  SER15       0.2643
     32  O         17.5670   45.5000  -66.6240 O.2    15  SER15      -0.2714
     33  CB        20.2670   45.7370  -65.4630 C.3    15  SER15       0.2130
     34  OG        21.6460   45.4810  -65.3180 O.3    15  SER15      -0.2179
     35  N         17.2700   44.0800  -64.8880 N.am   16  LEU16      -0.1963
     36  CA        15.8140   44.2420  -64.8830 C.3    16  LEU16       0.1728
     37  C         15.3510   45.6500  -64.4840 C.2    16  LEU16       0.2616
     38  O         14.4120   46.1840  -65.0720 O.2    16  LEU16      -0.2715
     39  CB        15.1260   43.1600  -64.0340 C.3    16  LEU16       0.0311
     40  CG        15.1070   41.7190  -64.5880 C.3    16  LEU16       0.0022
     41  CD1       14.4690   40.7510  -63.5810 C.3    16  LEU16       0.0001
     42  CD2       14.4120   41.6010  -65.9570 C.3    16  LEU16       0.0001
     43  N         16.0210   46.2570  -63.5110 N.am   17  SER17      -0.1950
     44  CA        15.6180   47.5650  -63.0090 C.3    17  SER17       0.1924
     45  C         16.8240   48.4320  -62.7100 C.2    17  SER17       0.2314
     46  O         17.9300   47.9260  -62.4570 O.2    17  SER17      -0.2863
     47  CB        14.7920   47.4090  -61.7230 C.3    17  SER17       0.2116
     48  OG        14.2050   48.6410  -61.3030 O.3    17  SER17      -0.2180
     49  N         18.7820   50.0110  -60.0380 N.3    19  ASN19      -0.1240
     50  CA        18.9270   49.4340  -58.6970 C.3    19  ASN19       0.1653
     51  C         20.1140   49.9850  -57.9370 C.2    19  ASN19       0.2266
     52  O         20.7980   50.8860  -58.4140 O.2    19  ASN19      -0.2867
     53  CB        18.9570   47.8850  -58.7340 C.3    19  ASN19       0.1155
     54  CG        20.1790   47.3040  -59.4900 C.2    19  ASN19       0.2627
     55  OD1       21.3370   47.7240  -59.2940 O.2    19  ASN19      -0.2716
     56  ND2       19.9050   46.3230  -60.3520 N.am   19  ASN19      -0.0877
     57  N         23.0180   48.7710  -57.2510 N.3    21  THR21      -0.1203
     58  CA        24.3320   48.5570  -57.8430 C.3    21  THR21       0.1994
     59  C         24.6150   49.5030  -59.0330 C.2    21  THR21       0.2617
     60  O         25.7050   50.0790  -59.1320 O.2    21  THR21      -0.2717
     61  CB        24.5350   47.0740  -58.2660 C.3    21  THR21       0.1784
     62  OG1       24.1330   46.1940  -57.2040 O.3    21  THR21      -0.2211
     63  CG2       26.0030   46.8050  -58.6140 C.3    21  THR21       0.0376
     64  N         23.6370   49.6710  -59.9250 N.am   22  ASN22      -0.1974
     65  CA        23.8190   50.5020  -61.1290 C.3    22  ASN22       0.1688
     66  C         23.5180   51.9960  -60.9960 C.2    22  ASN22       0.2292
     67  O         23.9480   52.7720  -61.8470 O.2    22  ASN22      -0.2864
     68  CB        23.0470   49.9330  -62.3310 C.3    22  ASN22       0.1181
     69  CG        21.5540   49.7640  -62.0560 C.2    22  ASN22       0.2629
     70  OD1       20.9030   50.6130  -61.4370 O.2    22  ASN22      -0.2716
     71  ND2       21.0050   48.6610  -62.5380 N.am   22  ASN22      -0.0877
     72  N         11.3460   45.2180  -57.4760 N.3    41  VAL41      -0.1245
     73  CA        12.6020   44.5280  -57.2090 C.3    41  VAL41       0.1561
     74  C         13.6880   45.5200  -56.7630 C.2    41  VAL41       0.2260
     75  O         14.5990   45.1700  -56.0170 O.2    41  VAL41      -0.2867
     76  CB        13.0280   43.6710  -58.4470 C.3    41  VAL41       0.0252
     77  CG1       13.8520   44.4770  -59.4500 C.3    41  VAL41       0.0019
     78  CG2       13.7600   42.4060  -58.0130 C.3    41  VAL41       0.0019
     79  N         17.4430   41.7870  -54.1900 N.3    46  ASP46      -0.1239
     80  CA        17.3910   40.5310  -54.9270 C.3    46  ASP46       0.1674
     81  C         18.5780   39.6880  -54.5310 C.2    46  ASP46       0.2266
     82  O         19.7170   40.1470  -54.6610 O.2    46  ASP46      -0.2867
     83  CB        17.4930   40.8140  -56.4250 C.3    46  ASP46       0.1410
     84  CG        17.2530   39.5800  -57.2860 C.2    46  ASP46       0.3668
     85  OD1       17.9140   39.4670  -58.3410 O.co2  46  ASP46      -0.2456
     86  OD2       16.3990   38.7380  -56.9110 O.co2  46  ASP46      -0.2456
     87  N         20.7940   37.8390  -57.7580 N.3    49  THR49      -0.1218
     88  CA        21.7900   38.6770  -58.4420 C.3    49  THR49       0.1862
     89  C         22.6240   39.5980  -57.5300 C.2    49  THR49       0.2287
     90  O         23.2180   40.5740  -58.0040 O.2    49  THR49      -0.2866
     91  CB        21.1460   39.4930  -59.5690 C.3    49  THR49       0.1770
     92  OG1       20.2060   40.4180  -59.0090 O.3    49  THR49      -0.2211
     93  CG2       20.4350   38.5690  -60.5800 C.3    49  THR49       0.0375
     94  N         22.1450   41.9330  -55.3130 N.3    51  THR51      -0.1218
     95  CA        21.9040   43.3650  -55.3170 C.3    51  THR51       0.1862
     96  C         21.1450   43.7900  -54.0410 C.2    51  THR51       0.2287
     97  O         20.1030   43.2250  -53.7180 O.2    51  THR51      -0.2866
     98  CB        21.2480   43.8380  -56.6750 C.3    51  THR51       0.1770
     99  OG1       20.3890   44.9550  -56.4590 O.3    51  THR51      -0.2211
    100  CG2       20.4690   42.7330  -57.3420 C.3    51  THR51       0.0375
@<TRIPOS>BOND
     1     1     2    1
     2    27    26   ar
     3    28    26   ar
     4     2     5    1
     5     2     3    1
     6     6     5    1
     7     6     7    1
     8    26    25    1
     9     8     7   ar
    10    21    22    1
    11    10     3   am
    12    10    11    1
    13    12    13    2
    14    12    11    1
    15     3     4    2
    16     7     9   ar
    17    22    25    1
    18    22    23    1
    19    11    14    1
    20    16    18   ar
    21    16    15   ar
    22    14    15    1
    23    18    20   ar
    24    15    17   ar
    25    23    29   am
    26    23    24    2
    27    29    30    1
    28    32    31    2
    29    20    19   ar
    30    17    19   ar
    31    42    40    1
    32    31    30    1
    33    31    35   am
    34    30    33    1
    35    33    34    1
    36    38    37    2
    37    35    36    1
    38    36    37    1
    39    36    39    1
    40    40    39    1
    41    40    41    1
    42    37    43   am
    43    43    44    1
    44    44    45    1
    45    44    47    1
    46    45    46    2
    47    71    69   am
    48    68    69    1
    49    68    65    1
    50    69    70    2
    51    67    66    2
    52    47    48    1
    53    65    66    1
    54    65    64    1
    55    93    91    1
    56    56    54   am
    57    49    50    1
    58    64    59   am
    59    91    92    1
    60    91    88    1
    61    54    55    2
    62    54    53    1
    63    77    76    1
    64    60    59    2
    65    59    58    1
    66    53    50    1
    67    50    51    1
    68    63    61    1
    69    76    78    1
    70    76    73    1
    71    88    87    1
    72    88    89    1
    73    52    51    2
    74    85    84   ar
    75    61    58    1
    76    61    62    1
    77    90    89    2
    78    58    57    1
    79    72    73    1
    80   100    98    1
    81    84    86   ar
    82    84    83    1
    83    73    74    1
    84    74    75    2
    85    98    99    1
    86    98    95    1
    87    83    80    1
    88    95    94    1
    89    95    96    1
    90    80    81    1
    91    80    79    1
    92    82    81    2
    93    96    97    2
