@<TRIPOS>MOLECULE
tmp/3b2uC00.pdb
 120 115 0 0 0
SMALL
GASTEIGER

@<TRIPOS>ATOM
      1  N         27.4530  -27.8450  -16.4930 N.3    13  GLU13      -0.1231
      2  CA        27.8080  -27.2230  -17.7850 C.3    13  GLU13       0.1699
      3  C         26.6210  -26.8670  -18.6940 C.2    13  GLU13       0.2592
      4  O         26.7910  -26.1430  -19.6660 O.2    13  GLU13      -0.2718
      5  CB        28.8220  -28.0870  -18.5580 C.3    13  GLU13       0.0402
      6  CG        28.3680  -29.5180  -18.9280 C.3    13  GLU13       0.1161
      7  CD        28.4290  -30.5380  -17.7640 C.2    13  GLU13       0.3649
      8  OE1       28.9520  -30.1960  -16.6710 O.co2  13  GLU13      -0.2457
      9  OE2       27.9560  -31.6910  -17.9500 O.co2  13  GLU13      -0.2457
     10  N         25.4340  -27.3850  -18.3920 N.am   14  PHE14      -0.1962
     11  CA        24.2310  -27.0970  -19.1900 C.3    14  PHE14       0.1771
     12  C         23.3010  -26.1320  -18.4360 C.2    14  PHE14       0.2619
     13  O         22.1440  -25.9120  -18.8350 O.2    14  PHE14      -0.2715
     14  CB        23.4680  -28.3910  -19.5350 C.3    14  PHE14       0.0574
     15  CG        24.3220  -29.4720  -20.1430 C.ar   14  PHE14      -0.0200
     16  CD1       24.6880  -30.5880  -19.3940 C.ar   14  PHE14      -0.0042
     17  CD2       24.7500  -29.3900  -21.4670 C.ar   14  PHE14      -0.0042
     18  CE1       25.4760  -31.6090  -19.9490 C.ar   14  PHE14      -0.0003
     19  CE2       25.5430  -30.4030  -22.0250 C.ar   14  PHE14      -0.0003
     20  CZ        25.9030  -31.5140  -21.2590 C.ar   14  PHE14      -0.0000
     21  N         23.8280  -25.5600  -17.3480 N.am   15  LYS15      -0.1963
     22  CA        23.0450  -24.7410  -16.3980 C.3    15  LYS15       0.1728
     23  C         22.3210  -23.5470  -17.0450 C.2    15  LYS15       0.2616
     24  O         21.3160  -23.0760  -16.5020 O.2    15  LYS15      -0.2715
     25  CB        23.9340  -24.2950  -15.2240 C.3    15  LYS15       0.0311
     26  CG        23.3380  -23.2730  -14.2600 C.3    15  LYS15       0.0038
     27  CD        24.4430  -22.6510  -13.4150 C.3    15  LYS15       0.0206
     28  CE        24.3590  -21.1250  -13.4220 C.3    15  LYS15       0.1093
     29  NZ        25.6150  -20.4880  -12.9070 N.3    15  LYS15      -0.1314
     30  N         22.8230  -23.0900  -18.2020 N.am   16  ASP16      -0.1957
     31  CA        22.2320  -21.9700  -18.9420 C.3    16  ASP16       0.1840
     32  C         21.5870  -22.3800  -20.2860 C.2    16  ASP16       0.2623
     33  O         21.1940  -21.5210  -21.0880 O.2    16  ASP16      -0.2715
     34  CB        23.2930  -20.8790  -19.1800 C.3    16  ASP16       0.1450
     35  CG        23.8170  -20.2720  -17.8890 C.2    16  ASP16       0.3671
     36  OD1       22.9930  -19.7990  -17.0770 O.co2  16  ASP16      -0.2456
     37  OD2       25.0550  -20.2620  -17.6910 O.co2  16  ASP16      -0.2456
     38  N         21.4820  -23.6870  -20.5250 N.am   17  SER17      -0.1936
     39  CA        20.9640  -24.2050  -21.7970 C.3    17  SER17       0.2055
     40  C         19.4800  -24.5640  -21.7060 C.2    17  SER17       0.2643
     41  O         19.0420  -25.1680  -20.7340 O.2    17  SER17      -0.2714
     42  CB        21.7850  -25.4080  -22.2420 C.3    17  SER17       0.2130
     43  OG        23.1630  -25.0890  -22.2590 O.3    17  SER17      -0.2179
     44  N         18.7110  -24.1860  -22.7170 N.am   18  LEU18      -0.1963
     45  CA        17.2520  -24.2800  -22.6370 C.3    18  LEU18       0.1728
     46  C         16.7290  -25.6480  -23.0520 C.2    18  LEU18       0.2616
     47  O         15.7170  -26.1160  -22.5240 O.2    18  LEU18      -0.2715
     48  CB        16.5820  -23.1920  -23.4900 C.3    18  LEU18       0.0311
     49  CG        16.8070  -21.7230  -23.1250 C.3    18  LEU18       0.0022
     50  CD1       16.3330  -20.8080  -24.2610 C.3    18  LEU18       0.0001
     51  CD2       16.1190  -21.3590  -21.8130 C.3    18  LEU18       0.0001
     52  N         17.4170  -26.2760  -24.0010 N.am   19  SER19      -0.1950
     53  CA        17.0230  -27.5760  -24.5230 C.3    19  SER19       0.1924
     54  C         18.2440  -28.4030  -24.8780 C.2    19  SER19       0.2314
     55  O         19.3490  -27.8830  -25.0370 O.2    19  SER19      -0.2863
     56  CB        16.1420  -27.3970  -25.7690 C.3    19  SER19       0.2116
     57  OG        15.8700  -28.6230  -26.4380 O.3    19  SER19      -0.2180
     58  N         20.1620  -29.9880  -27.7720 N.3    21  ASN21      -0.1240
     59  CA        20.3440  -29.3330  -29.0560 C.3    21  ASN21       0.1653
     60  C         21.6140  -29.8230  -29.7480 C.2    21  ASN21       0.2266
     61  O         22.4200  -30.5490  -29.1450 O.2    21  ASN21      -0.2867
     62  CB        20.3220  -27.7840  -28.8910 C.3    21  ASN21       0.1155
     63  CG        21.5480  -27.2190  -28.1320 C.2    21  ASN21       0.2627
     64  OD1       22.6990  -27.5900  -28.4120 O.2    21  ASN21      -0.2716
     65  ND2       21.2900  -26.2850  -27.1870 N.am   21  ASN21      -0.0877
     66  N         24.4330  -28.6360  -30.4570 N.3    23  THR23      -0.1203
     67  CA        25.7430  -28.3770  -29.8910 C.3    23  THR23       0.1994
     68  C         26.0530  -29.3600  -28.7540 C.2    23  THR23       0.2617
     69  O         27.1340  -29.9450  -28.7440 O.2    23  THR23      -0.2717
     70  CB        25.9000  -26.9020  -29.4610 C.3    23  THR23       0.1784
     71  OG1       25.7450  -26.0580  -30.6070 O.3    23  THR23      -0.2211
     72  CG2       27.2780  -26.6530  -28.8260 C.3    23  THR23       0.0376
     73  N         25.0970  -29.5770  -27.8400 N.am   24  ASN24      -0.1974
     74  CA        25.3320  -30.3930  -26.6280 C.3    24  ASN24       0.1688
     75  C         25.0480  -31.8960  -26.7280 C.2    24  ASN24       0.2292
     76  O         25.4670  -32.6620  -25.8520 O.2    24  ASN24      -0.2864
     77  CB        24.6120  -29.7990  -25.3960 C.3    24  ASN24       0.1181
     78  CG        23.0930  -29.6340  -25.5960 C.2    24  ASN24       0.2629
     79  OD1       22.5240  -28.5910  -25.2440 O.2    24  ASN24      -0.2716
     80  ND2       22.4380  -30.6610  -26.1500 N.am   24  ASN24      -0.0877
     81  N         12.9270  -24.9860  -30.2100 N.3    43  VAL43      -0.1245
     82  CA        14.1700  -24.3010  -30.6030 C.3    43  VAL43       0.1561
     83  C         15.2740  -25.2900  -30.9320 C.2    43  VAL43       0.2260
     84  O         16.2150  -24.9360  -31.6330 O.2    43  VAL43      -0.2867
     85  CB        14.6940  -23.2350  -29.5790 C.3    43  VAL43       0.0252
     86  CG1       13.7100  -22.0430  -29.4740 C.3    43  VAL43       0.0019
     87  CG2       15.0300  -23.8630  -28.1950 C.3    43  VAL43       0.0019
     88  N         18.7950  -21.6730  -33.2230 N.3    48  ASP48      -0.1239
     89  CA        18.7040  -20.3750  -32.5660 C.3    48  ASP48       0.1674
     90  C         19.9230  -19.5590  -32.9490 C.2    48  ASP48       0.2266
     91  O         21.0540  -20.0210  -32.7770 O.2    48  ASP48      -0.2867
     92  CB        18.6720  -20.5760  -31.0490 C.3    48  ASP48       0.1410
     93  CG        18.3460  -19.3050  -30.2930 C.2    48  ASP48       0.3668
     94  OD1       19.1320  -18.9280  -29.3880 O.co2  48  ASP48      -0.2456
     95  OD2       17.3030  -18.6910  -30.6130 O.co2  48  ASP48      -0.2456
     96  N         20.8620  -16.4690  -31.7170 N.3    50  PHE50      -0.1227
     97  CA        21.4560  -15.7040  -30.6160 C.3    50  PHE50       0.1736
     98  C         22.5070  -16.4940  -29.8220 C.2    50  PHE50       0.2596
     99  O         23.4730  -15.9170  -29.3180 O.2    50  PHE50      -0.2718
    100  CB        20.3600  -15.1150  -29.7080 C.3    50  PHE50       0.0547
    101  CG        20.8920  -14.3000  -28.5530 C.ar   50  PHE50      -0.0202
    102  CD1       20.5660  -14.6390  -27.2340 C.ar   50  PHE50      -0.0042
    103  CD2       21.7290  -13.2020  -28.7740 C.ar   50  PHE50      -0.0042
    104  CE1       21.0660  -13.8980  -26.1590 C.ar   50  PHE50      -0.0003
    105  CE2       22.2330  -12.4570  -27.7050 C.ar   50  PHE50      -0.0003
    106  CZ        21.9020  -12.8070  -26.3940 C.ar   50  PHE50      -0.0000
    107  N         22.3360  -17.8130  -29.7440 N.am   51  THR51      -0.1953
    108  CA        23.3240  -18.6770  -29.0860 C.3    51  THR51       0.1897
    109  C         24.1600  -19.4950  -30.0670 C.2    51  THR51       0.2313
    110  O         24.7720  -20.4830  -29.6730 O.2    51  THR51      -0.2863
    111  CB        22.6630  -19.6390  -28.0820 C.3    51  THR51       0.1794
    112  OG1       21.7580  -20.5200  -28.7730 O.3    51  THR51      -0.2208
    113  CG2       21.9200  -18.8530  -26.9800 C.3    51  THR51       0.0378
    114  N         23.4540  -21.6990  -32.2020 N.3    53  THR53      -0.1218
    115  CA        23.1000  -23.1160  -32.2090 C.3    53  THR53       0.1862
    116  C         22.5090  -23.4920  -33.5740 C.2    53  THR53       0.2287
    117  O         21.5590  -22.8590  -34.0270 O.2    53  THR53      -0.2866
    118  CB        22.0720  -23.4500  -31.0870 C.3    53  THR53       0.1770
    119  OG1       22.5330  -22.9390  -29.8290 O.3    53  THR53      -0.2211
    120  CG2       21.8520  -24.9520  -30.9720 C.3    53  THR53       0.0375
@<TRIPOS>BOND
     1   117   116    2
     2   116   115    1
     3    88    89    1
     4    90    91    2
     5    90    89    1
     6    89    92    1
     7   115   114    1
     8   115   118    1
     9    96    97    1
    10    84    83    2
    11   118   120    1
    12   118   119    1
    13    92    93    1
    14    83    82    1
    15    97    98    1
    16    97   100    1
    17    95    93   ar
    18    71    70    1
    19    82    81    1
    20    82    85    1
    21    66    67    1
    22    93    94   ar
    23   109   110    2
    24   109   108    1
    25    67    70    1
    26    67    68    1
    27    98   107   am
    28    98    99    2
    29    60    61    2
    30    60    59    1
    31   107   108    1
    32   100   101    1
    33    85    86    1
    34    85    87    1
    35    70    72    1
    36   108   111    1
    37    59    62    1
    38    59    58    1
    39    62    63    1
    40   103   101   ar
    41   103   105   ar
    42   112   111    1
    43    68    69    2
    44    68    73   am
    45   101   102   ar
    46    64    63    2
    47    63    65   am
    48   111   113    1
    49    73    74    1
    50   105   106   ar
    51   102   104   ar
    52    75    74    1
    53    75    76    2
    54    74    77    1
    55    57    56    1
    56   106   104   ar
    57    80    78   am
    58    56    53    1
    59    78    77    1
    60    78    79    2
    61    55    54    2
    62    54    53    1
    63    53    52    1
    64    50    49    1
    65    52    46   am
    66    48    49    1
    67    48    45    1
    68    49    51    1
    69    46    45    1
    70    46    47    2
    71    44    45    1
    72    44    40   am
    73    43    42    1
    74    42    39    1
    75    19    17   ar
    76    19    20   ar
    77    39    40    1
    78    39    38    1
    79    40    41    2
    80    17    15   ar
    81    20    18   ar
    82    33    32    2
    83    38    32   am
    84    32    31    1
    85    15    14    1
    86    15    16   ar
    87    18    16   ar
    88     4     3    2
    89    14    11    1
    90    11    12    1
    91    11    10    1
    92    34    31    1
    93    34    35    1
    94    31    30    1
    95     6     5    1
    96     6     7    1
    97    13    12    2
    98     3    10   am
    99     3     2    1
   100     5     2    1
   101    12    21   am
   102    30    23   am
   103     9     7   ar
   104    35    37   ar
   105    35    36   ar
   106     2     1    1
   107     7     8   ar
   108    21    22    1
   109    23    24    2
   110    23    22    1
   111    22    25    1
   112    25    26    1
   113    26    27    1
   114    28    27    1
   115    28    29    1
