@<TRIPOS>MOLECULE
tmp/3b2uO00.pdb
 130 125 0 0 0
SMALL
GASTEIGER

@<TRIPOS>ATOM
      1  N         36.8650   38.4230  -38.1570 N.3    13  GLU13      -0.1231
      2  CA        36.4220   38.8320  -39.4860 C.3    13  GLU13       0.1699
      3  C         34.9860   39.3430  -39.4130 C.2    13  GLU13       0.2592
      4  O         34.6170   40.2770  -40.1110 O.2    13  GLU13      -0.2718
      5  CB        36.5320   37.6730  -40.4820 C.3    13  GLU13       0.0402
      6  CG        35.5150   36.5620  -40.2560 C.3    13  GLU13       0.1161
      7  CD        36.1060   35.1740  -40.4120 C.2    13  GLU13       0.3649
      8  OE1       36.2200   34.4640  -39.3840 O.co2  13  GLU13      -0.2457
      9  OE2       36.4540   34.7980  -41.5560 O.co2  13  GLU13      -0.2457
     10  N         34.1840   38.7450  -38.5440 N.am   14  PHE14      -0.1962
     11  CA        32.7900   39.1430  -38.4340 C.3    14  PHE14       0.1771
     12  C         32.6130   40.3080  -37.4540 C.2    14  PHE14       0.2619
     13  O         31.5030   40.5290  -36.9320 O.2    14  PHE14      -0.2715
     14  CB        31.9070   37.9400  -38.0650 C.3    14  PHE14       0.0574
     15  CG        32.0050   36.7890  -39.0390 C.ar   14  PHE14      -0.0200
     16  CD1       32.5410   35.5650  -38.6370 C.ar   14  PHE14      -0.0042
     17  CD2       31.5800   36.9320  -40.3590 C.ar   14  PHE14      -0.0042
     18  CE1       32.6420   34.4890  -39.5370 C.ar   14  PHE14      -0.0003
     19  CE2       31.6760   35.8720  -41.2550 C.ar   14  PHE14      -0.0003
     20  CZ        32.2050   34.6480  -40.8460 C.ar   14  PHE14      -0.0000
     21  N         33.7040   41.0410  -37.2000 N.am   15  LYS15      -0.1963
     22  CA        33.6300   42.2950  -36.4470 C.3    15  LYS15       0.1728
     23  C         32.6860   43.2530  -37.1950 C.2    15  LYS15       0.2616
     24  O         32.6300   43.2480  -38.4360 O.2    15  LYS15      -0.2715
     25  CB        35.0220   42.9300  -36.2710 C.3    15  LYS15       0.0311
     26  CG        35.6910   43.3480  -37.5330 C.3    15  LYS15       0.0038
     27  CD        36.9190   44.2030  -37.2060 C.3    15  LYS15       0.0206
     28  CE        37.6600   44.4100  -38.4990 C.3    15  LYS15       0.1093
     29  NZ        38.7410   45.3930  -38.2430 N.3    15  LYS15      -0.1314
     30  N         31.9240   44.0420  -36.4380 N.am   16  ASP16      -0.1957
     31  CA        31.0340   45.0750  -36.9950 C.3    16  ASP16       0.1840
     32  C         29.9080   44.5530  -37.9040 C.2    16  ASP16       0.2623
     33  O         29.2740   45.3300  -38.6270 O.2    16  ASP16      -0.2715
     34  CB        31.8400   46.1790  -37.6950 C.3    16  ASP16       0.1450
     35  CG        32.9220   46.7650  -36.8060 C.2    16  ASP16       0.3671
     36  OD1       32.8060   47.9540  -36.4410 O.co2  16  ASP16      -0.2456
     37  OD2       33.8880   46.0430  -36.4720 O.co2  16  ASP16      -0.2456
     38  N         29.6630   43.2460  -37.8490 N.am   17  SER17      -0.1936
     39  CA        28.5220   42.6200  -38.5150 C.3    17  SER17       0.2055
     40  C         27.3720   42.4700  -37.5280 C.2    17  SER17       0.2643
     41  O         27.5740   41.9770  -36.4110 O.2    17  SER17      -0.2714
     42  CB        28.9240   41.2450  -39.0410 C.3    17  SER17       0.2130
     43  OG        30.0850   41.3300  -39.8540 O.3    17  SER17      -0.2179
     44  N         26.1670   42.8770  -37.9230 N.am   18  LEU18      -0.1963
     45  CA        25.0260   42.8290  -36.9930 C.3    18  LEU18       0.1728
     46  C         24.4080   41.4450  -36.8480 C.2    18  LEU18       0.2616
     47  O         24.0620   41.0360  -35.7240 O.2    18  LEU18      -0.2715
     48  CB        23.9390   43.8590  -37.3450 C.3    18  LEU18       0.0311
     49  CG        24.2630   45.3430  -37.1810 C.3    18  LEU18       0.0022
     50  CD1       23.0850   46.1760  -37.6480 C.3    18  LEU18       0.0001
     51  CD2       24.6720   45.6950  -35.7430 C.3    18  LEU18       0.0001
     52  N         24.2290   40.7480  -37.9760 N.am   19  SER19      -0.1950
     53  CA        23.7340   39.3650  -37.9380 C.3    19  SER19       0.1924
     54  C         24.2600   38.5370  -39.0890 C.2    19  SER19       0.2314
     55  O         24.9380   39.0540  -39.9640 O.2    19  SER19      -0.2863
     56  CB        22.1900   39.3050  -37.8340 C.3    19  SER19       0.2116
     57  OG        21.5350   39.1180  -39.0710 O.3    19  SER19      -0.2180
     58  N         24.1260   37.0700  -42.5610 N.3    21  ASN21      -0.1240
     59  CA        23.5310   37.6700  -43.7660 C.3    21  ASN21       0.1653
     60  C         24.1210   37.1500  -45.0740 C.2    21  ASN21       0.2266
     61  O         25.1960   36.5200  -45.0680 O.2    21  ASN21      -0.2867
     62  CB        23.6130   39.2040  -43.7110 C.3    21  ASN21       0.1155
     63  CG        25.0300   39.7320  -43.8790 C.2    21  ASN21       0.2627
     64  OD1       25.6570   39.5410  -44.9310 O.2    21  ASN21      -0.2716
     65  ND2       25.5340   40.4250  -42.8410 N.am   21  ASN21      -0.0877
     66  N         26.0530   38.1060  -47.3570 N.3    23  THR23      -0.1203
     67  CA        27.4830   38.2850  -47.6050 C.3    23  THR23       0.1994
     68  C         28.3690   37.3860  -46.7460 C.2    23  THR23       0.2617
     69  O         29.4670   37.0350  -47.1860 O.2    23  THR23      -0.2717
     70  CB        27.9470   39.7710  -47.3880 C.3    23  THR23       0.1784
     71  OG1       27.1370   40.6600  -48.1610 O.3    23  THR23      -0.2211
     72  CG2       29.4210   39.9640  -47.7840 C.3    23  THR23       0.0376
     73  N         27.9300   37.0430  -45.5250 N.am   24  ASN24      -0.1974
     74  CA        28.7760   36.2230  -44.6200 C.3    24  ASN24       0.1688
     75  C         28.4740   34.7130  -44.5570 C.2    24  ASN24       0.2292
     76  O         29.3650   33.9030  -44.2860 O.2    24  ASN24      -0.2864
     77  CB        28.9110   36.8430  -43.2030 C.3    24  ASN24       0.1181
     78  CG        27.5640   37.0060  -42.4650 C.2    24  ASN24       0.2629
     79  OD1       26.7590   36.0740  -42.3910 O.2    24  ASN24      -0.2716
     80  ND2       27.3430   38.1950  -41.8770 N.am   24  ASN24      -0.0877
     81  N         30.7660   31.7590  -45.5570 N.3    27  HIS27      -0.1241
     82  CA        31.9360   31.5350  -44.7110 C.3    27  HIS27       0.1621
     83  C         31.7720   30.5370  -43.5440 C.2    27  HIS27       0.2264
     84  O         32.7750   30.0930  -42.9760 O.2    27  HIS27      -0.2867
     85  CB        32.4470   32.8820  -44.2010 C.3    27  HIS27       0.0745
     86  CG        33.1030   33.7120  -45.2600 C.ar   27  HIS27       0.0817
     87  ND1       34.2100   33.2790  -45.9660 N.ar   27  HIS27      -0.2268
     88  CD2       32.8190   34.9510  -45.7280 C.ar   27  HIS27       0.1154
     89  CE1       34.5730   34.2140  -46.8290 C.ar   27  HIS27       0.1986
     90  NE2       33.7490   35.2400  -46.7020 N.ar   27  HIS27      -0.2212
     91  N         17.1500   42.1710  -40.2720 N.3    43  VAL43      -0.1245
     92  CA        17.9750   42.7310  -41.3760 C.3    43  VAL43       0.1561
     93  C         18.5050   41.6900  -42.3610 C.2    43  VAL43       0.2260
     94  O         18.6600   41.9850  -43.5530 O.2    43  VAL43      -0.2867
     95  CB        19.1630   43.6220  -40.9200 C.3    43  VAL43       0.0252
     96  CG1       18.6510   44.9310  -40.2960 C.3    43  VAL43       0.0019
     97  CG2       20.1300   42.8600  -39.9940 C.3    43  VAL43       0.0019
     98  N         20.2090   45.3210  -46.5520 N.3    48  ASP48      -0.1239
     99  CA        20.6190   46.6520  -46.0740 C.3    48  ASP48       0.1674
    100  C         21.3170   47.4860  -47.1550 C.2    48  ASP48       0.2266
    101  O         22.1910   46.9770  -47.8740 O.2    48  ASP48      -0.2867
    102  CB        21.5350   46.5120  -44.8560 C.3    48  ASP48       0.1410
    103  CG        21.6100   47.7860  -44.0190 C.2    48  ASP48       0.3668
    104  OD1       20.6320   48.5790  -44.0130 O.co2  48  ASP48      -0.2456
    105  OD2       22.6550   47.9900  -43.3580 O.co2  48  ASP48      -0.2456
    106  N         22.9690   50.6160  -46.5020 N.3    50  PHE50      -0.1227
    107  CA        24.1530   51.2670  -45.9530 C.3    50  PHE50       0.1736
    108  C         25.3780   50.3450  -45.9780 C.2    50  PHE50       0.2596
    109  O         26.4640   50.7790  -46.3280 O.2    50  PHE50      -0.2718
    110  CB        23.8630   51.8110  -44.5400 C.3    50  PHE50       0.0547
    111  CG        25.0260   52.5680  -43.9120 C.ar   50  PHE50      -0.0202
    112  CD1       25.6000   52.1210  -42.7180 C.ar   50  PHE50      -0.0042
    113  CD2       25.5450   53.7210  -44.5120 C.ar   50  PHE50      -0.0042
    114  CE1       26.6600   52.8060  -42.1340 C.ar   50  PHE50      -0.0003
    115  CE2       26.6080   54.4110  -43.9420 C.ar   50  PHE50      -0.0003
    116  CZ        27.1690   53.9540  -42.7470 C.ar   50  PHE50      -0.0000
    117  N         25.1970   49.0750  -45.6290 N.am   51  THR51      -0.1953
    118  CA        26.2940   48.1020  -45.6510 C.3    51  THR51       0.1897
    119  C         26.3380   47.2600  -46.9270 C.2    51  THR51       0.2313
    120  O         26.9810   46.2140  -46.9460 O.2    51  THR51      -0.2863
    121  CB        26.2300   47.1410  -44.4500 C.3    51  THR51       0.1794
    122  OG1       24.9270   46.5580  -44.3820 O.3    51  THR51      -0.2208
    123  CG2       26.5180   47.8690  -43.1370 C.3    51  THR51       0.0378
    124  N         24.2660   45.1040  -48.5330 N.3    53  THR53      -0.1218
    125  CA        24.0070   43.7180  -48.1750 C.3    53  THR53       0.1862
    126  C         22.7180   43.2190  -48.8140 C.2    53  THR53       0.2287
    127  O         21.6400   43.6950  -48.4680 O.2    53  THR53      -0.2866
    128  CB        23.8840   43.5680  -46.6450 C.3    53  THR53       0.1770
    129  OG1       25.0450   44.1200  -46.0180 O.3    53  THR53      -0.2211
    130  CG2       23.7360   42.1020  -46.2390 C.3    53  THR53       0.0375
@<TRIPOS>BOND
     1   126   127    2
     2   126   125    1
     3   124   125    1
     4   125   128    1
     5    71    70    1
     6   101   100    2
     7    72    70    1
     8    67    70    1
     9    67    66    1
    10    67    68    1
    11    69    68    2
    12   100    99    1
    13   120   119    2
    14   119   118    1
    15    89    90   ar
    16    89    87   ar
    17    68    73   am
    18    90    88   ar
    19   128   130    1
    20   128   129    1
    21    98    99    1
    22   106   107    1
    23   109   108    2
    24    99   102    1
    25   108   107    1
    26   108   117   am
    27    87    86   ar
    28   107   110    1
    29    88    86   ar
    30   118   117    1
    31   118   121    1
    32    81    82    1
    33    73    74    1
    34    86    85    1
    35    60    61    2
    36    60    59    1
    37    64    63    2
    38   102   103    1
    39    82    85    1
    40    82    83    1
    41    74    75    1
    42    74    77    1
    43    75    76    2
    44   110   111    1
    45   113   115   ar
    46   113   111   ar
    47   121   122    1
    48   121   123    1
    49   103   104   ar
    50   103   105   ar
    51   115   116   ar
    52   111   112   ar
    53    63    62    1
    54    63    65   am
    55    59    62    1
    56    59    58    1
    57    94    93    2
    58    83    84    2
    59    77    78    1
    60   116   114   ar
    61   112   114   ar
    62    78    79    2
    63    78    80   am
    64    93    92    1
    65     9     7   ar
    66    92    95    1
    67    92    91    1
    68    19    20   ar
    69    19    17   ar
    70    95    96    1
    71    95    97    1
    72    20    18   ar
    73     5     6    1
    74     5     2    1
    75     7     6    1
    76     7     8   ar
    77    17    15   ar
    78     4     3    2
    79    55    54    2
    80    43    42    1
    81    18    16   ar
    82     2     3    1
    83     2     1    1
    84     3    10   am
    85    54    53    1
    86    57    56    1
    87    42    39    1
    88    15    16   ar
    89    15    14    1
    90    33    32    2
    91    10    11    1
    92    39    38    1
    93    39    40    1
    94    28    29    1
    95    28    27    1
    96    24    23    2
    97    11    14    1
    98    11    12    1
    99    52    53    1
   100    52    46   am
   101    53    56    1
   102    44    40   am
   103    44    45    1
   104    32    38   am
   105    32    31    1
   106    34    31    1
   107    34    35    1
   108    50    49    1
   109    26    27    1
   110    26    25    1
   111    40    41    2
   112    12    21   am
   113    12    13    2
   114    48    49    1
   115    48    45    1
   116    21    22    1
   117    23    22    1
   118    23    30   am
   119    49    51    1
   120    31    30    1
   121    45    46    1
   122    46    47    2
   123    35    37   ar
   124    35    36   ar
   125    22    25    1
