@<TRIPOS>MOLECULE
tmp/3b2wA00.pdb
 227 217 0 0 0
SMALL
GASTEIGER

@<TRIPOS>ATOM
      1  N         23.6810   -4.3800   23.9060 N.3    12  GLU12      -0.1231
      2  CA        22.9900   -3.1260   24.1510 C.3    12  GLU12       0.1699
      3  C         21.4990   -3.2040   23.8280 C.2    12  GLU12       0.2592
      4  O         21.1050   -3.5850   22.7200 O.2    12  GLU12      -0.2718
      5  CB        23.7010   -2.0670   23.3020 C.3    12  GLU12       0.0402
      6  CG        23.0920   -0.6940   23.2310 C.3    12  GLU12       0.1161
      7  CD        24.0880    0.3130   22.6450 C.2    12  GLU12       0.3649
      8  OE1       24.7190   -0.0010   21.6000 O.co2  12  GLU12      -0.2457
      9  OE2       24.2420    1.4110   23.2290 O.co2  12  GLU12      -0.2457
     10  N         20.6630   -2.8650   24.8010 N.am   13  ARG13      -0.1966
     11  CA        19.2330   -2.9100   24.5610 C.3    13  ARG13       0.1729
     12  C         18.9190   -1.8140   23.5620 C.2    13  ARG13       0.2616
     13  O         19.4830   -0.7420   23.6280 O.2    13  ARG13      -0.2715
     14  CB        18.4440   -2.6770   25.8490 C.3    13  ARG13       0.0348
     15  CG        16.9460   -3.0010   25.7010 C.3    13  ARG13       0.0492
     16  CD        16.2280   -3.0750   27.0440 C.3    13  ARG13       0.2205
     17  NE        16.1030   -1.7590   27.6800 N.pl3  13  ARG13      -0.0865
     18  CZ        15.6850   -1.5610   28.9310 C.cat  13  ARG13       0.5346
     19  NH1       15.3480   -2.5970   29.6900 N.pl3  13  ARG13       0.1354
     20  NH2       15.6180   -0.3330   29.4300 N.pl3  13  ARG13       0.1354
     21  N         18.0380   -2.0970   22.6160 N.am   14  LEU14      -0.1963
     22  CA        17.6700   -1.0930   21.6330 C.3    14  LEU14       0.1728
     23  C         16.2250   -0.7070   21.8760 C.2    14  LEU14       0.2616
     24  O         15.8890    0.4440   21.8630 O.2    14  LEU14      -0.2715
     25  CB        17.8320   -1.6440   20.2210 C.3    14  LEU14       0.0311
     26  CG        19.2270   -2.1640   19.9020 C.3    14  LEU14       0.0022
     27  CD1       19.2340   -2.8210   18.5370 C.3    14  LEU14       0.0001
     28  CD2       20.2140   -1.0150   19.9610 C.3    14  LEU14       0.0001
     29  N         15.3770   -1.6990   22.1050 N.am   15  GLY15      -0.1955
     30  CA        13.9780   -1.4190   22.3520 C.3    15  GLY15       0.1869
     31  C         13.3680   -2.3650   23.3740 C.2    15  GLY15       0.2309
     32  O         13.8140   -3.5180   23.5440 O.2    15  GLY15      -0.2863
     33  N         14.4470   -5.7280   22.1730 N.3    22  VAL22      -0.1245
     34  CA        15.2870   -5.8480   20.9900 C.3    22  VAL22       0.1561
     35  C         16.6970   -5.4380   21.4160 C.2    22  VAL22       0.2260
     36  O         16.9160   -4.3250   21.8950 O.2    22  VAL22      -0.2867
     37  CB        14.7920   -4.9110   19.8570 C.3    22  VAL22       0.0252
     38  CG1       15.8210   -4.8540   18.7360 C.3    22  VAL22       0.0019
     39  CG2       13.4820   -5.4100   19.3190 C.3    22  VAL22       0.0019
     40  N         20.8150   -8.0790   15.4930 N.3    34  ALA34      -0.1231
     41  CA        19.7530   -7.4410   16.2600 C.3    34  ALA34       0.1694
     42  C         18.9480   -8.6390   16.7260 C.2    34  ALA34       0.2592
     43  O         18.6060   -9.4820   15.9330 O.2    34  ALA34      -0.2718
     44  CB        18.9120   -6.5570   15.3760 C.3    34  ALA34       0.0304
     45  N         18.6470   -8.7040   18.0140 N.am   35  VAL35      -0.1966
     46  CA        17.9340   -9.8480   18.5580 C.3    35  VAL35       0.1727
     47  C         16.6540   -9.4850   19.2820 C.2    35  VAL35       0.2616
     48  O         16.6420   -8.6270   20.1460 O.2    35  VAL35      -0.2715
     49  CB        18.8460  -10.6270   19.5340 C.3    35  VAL35       0.0290
     50  CG1       18.2150  -11.9640   19.8930 C.3    35  VAL35       0.0023
     51  CG2       20.2180  -10.8090   18.9180 C.3    35  VAL35       0.0023
     52  N         15.5700  -10.1590   18.9260 N.am   36  LYS36      -0.1977
     53  CA        14.2980   -9.8860   19.5680 C.3    36  LYS36       0.1596
     54  C         13.9290  -11.0540   20.4700 C.2    36  LYS36       0.2287
     55  O         13.8220  -12.2010   20.0210 O.2    36  LYS36      -0.2864
     56  CB        13.2080   -9.6340   18.5220 C.3    36  LYS36       0.0298
     57  CG        11.8840   -9.2230   19.1370 C.3    36  LYS36       0.0038
     58  CD        11.1160   -8.2610   18.2390 C.3    36  LYS36       0.0206
     59  CE        10.5130   -8.9390   17.0230 C.3    36  LYS36       0.1093
     60  NZ         9.8410   -7.9140   16.1710 N.3    36  LYS36      -0.1314
     61  N          5.8510  -14.7670   13.5120 N.3    51  GLU51      -0.1245
     62  CA         6.5500  -13.6620   12.8680 C.3    51  GLU51       0.1567
     63  C          7.8000  -14.1460   12.1270 C.2    51  GLU51       0.2260
     64  O          8.1200  -13.6690   11.0490 O.2    51  GLU51      -0.2867
     65  CB         6.9450  -12.6230   13.9180 C.3    51  GLU51       0.0388
     66  CG         7.6640  -11.4030   13.3620 C.3    51  GLU51       0.1160
     67  CD         8.1660  -10.4630   14.4510 C.2    51  GLU51       0.3649
     68  OE1        7.5500  -10.4210   15.5380 O.co2  51  GLU51      -0.2457
     69  OE2        9.1700   -9.7540   14.2160 O.co2  51  GLU51      -0.2457
     70  N          6.7440  -16.0730    8.9660 N.3    54  LEU54      -0.1231
     71  CA         6.3190  -15.1400    7.9260 C.3    54  LEU54       0.1693
     72  C          7.5460  -14.5360    7.2510 C.2    54  LEU54       0.2591
     73  O          7.6080  -14.4020    6.0430 O.2    54  LEU54      -0.2718
     74  CB         5.4680  -14.0190    8.5190 C.3    54  LEU54       0.0284
     75  CG         4.9370  -13.0400    7.4640 C.3    54  LEU54       0.0019
     76  CD1        4.1160  -13.7840    6.4090 C.3    54  LEU54       0.0001
     77  CD2        4.0940  -11.9740    8.1410 C.3    54  LEU54       0.0001
     78  N          8.5260  -14.1790    8.0660 N.am   55  MET55      -0.1979
     79  CA         9.7600  -13.5970    7.5780 C.3    55  MET55       0.1605
     80  C         10.4580  -14.4910    6.5490 C.2    55  MET55       0.2287
     81  O         10.9080  -14.0130    5.5170 O.2    55  MET55      -0.2864
     82  CB        10.6740  -13.3120    8.7690 C.3    55  MET55       0.0413
     83  CG        10.1190  -12.2040    9.6540 C.3    55  MET55       0.0598
     84  SD        10.9960  -11.9250   11.1990 S.3    55  MET55      -0.1393
     85  CE        12.6550  -11.6200   10.6080 C.3    55  MET55       0.0692
     86  N          8.5400  -14.3270    3.4170 N.3    58  LEU58      -0.1245
     87  CA         8.5150  -12.9990    2.8150 C.3    58  LEU58       0.1561
     88  C          9.8630  -12.3150    2.5640 C.2    58  LEU58       0.2260
     89  O          9.9590  -11.0810    2.6380 O.2    58  LEU58      -0.2867
     90  CB         7.6240  -12.0850    3.6650 C.3    58  LEU58       0.0270
     91  CG         6.1960  -11.7620    3.1870 C.3    58  LEU58       0.0019
     92  CD1        5.5700  -12.8970    2.3790 C.3    58  LEU58       0.0001
     93  CD2        5.3670  -11.4530    4.4170 C.3    58  LEU58       0.0001
     94  N         13.0170   -5.7930    2.5950 N.3    63  LEU63      -0.1231
     95  CA        12.3810   -6.2530    3.8150 C.3    63  LEU63       0.1693
     96  C         13.4120   -6.8460    4.7510 C.2    63  LEU63       0.2591
     97  O         14.4190   -7.3840    4.3060 O.2    63  LEU63      -0.2718
     98  CB        11.3280   -7.3160    3.5010 C.3    63  LEU63       0.0284
     99  CG         9.9020   -6.8010    3.3400 C.3    63  LEU63       0.0019
    100  CD1        9.7690   -6.0180    2.0330 C.3    63  LEU63       0.0001
    101  CD2        8.9510   -7.9780    3.3650 C.3    63  LEU63       0.0001
    102  N         13.1420   -6.7390    6.0490 N.am   64  VAL64      -0.1980
    103  CA        14.0200   -7.2770    7.0730 C.3    64  VAL64       0.1595
    104  C         14.1060   -8.7870    6.9030 C.2    64  VAL64       0.2287
    105  O         13.0940   -9.4760    6.9310 O.2    64  VAL64      -0.2864
    106  CB        13.4970   -6.9440    8.4890 C.3    64  VAL64       0.0276
    107  CG1       14.2330   -7.7810    9.5310 C.3    64  VAL64       0.0022
    108  CG2       13.6780   -5.4610    8.7720 C.3    64  VAL64       0.0022
    109  N         14.5620  -13.9960   18.0350 N.3    77  ILE77      -0.1245
    110  CA        14.4320  -13.8580   16.5870 C.3    77  ILE77       0.1561
    111  C         15.6430  -13.0070   16.2320 C.2    77  ILE77       0.2260
    112  O         15.8030  -11.9140   16.7400 O.2    77  ILE77      -0.2867
    113  CB        13.1320  -13.1410   16.1790 C.3    77  ILE77       0.0252
    114  CG1       11.9410  -14.0880   16.3780 C.3    77  ILE77       0.0019
    115  CG2       13.2100  -12.7080   14.7260 C.3    77  ILE77       0.0019
    116  CD1       10.5860  -13.4790   16.0550 C.3    77  ILE77       0.0001
    117  N         18.1600  -11.0620   13.4370 N.3    79  THR79      -0.1203
    118  CA        18.3070  -10.4540   12.1320 C.3    79  THR79       0.1994
    119  C         19.6390   -9.7200   12.1530 C.2    79  THR79       0.2618
    120  O         20.2120   -9.4900   13.2170 O.2    79  THR79      -0.2717
    121  CB        17.2300   -9.3920   11.8870 C.3    79  THR79       0.1784
    122  OG1       17.4200   -8.3180   12.8230 O.3    79  THR79      -0.2211
    123  CG2       15.8350   -9.9780   12.0600 C.3    79  THR79       0.0376
    124  N         20.1200   -9.3460   10.9760 N.am   80  GLU80      -0.1965
    125  CA        21.3540   -8.5880   10.8840 C.3    80  GLU80       0.1733
    126  C         21.1140   -7.1300   11.2890 C.2    80  GLU80       0.2616
    127  O         20.0690   -6.5420   10.9980 O.2    80  GLU80      -0.2715
    128  CB        21.9250   -8.6580    9.4740 C.3    80  GLU80       0.0429
    129  CG        22.8170   -9.8570    9.2570 C.3    80  GLU80       0.1163
    130  CD        23.2150  -10.0090    7.8120 C.2    80  GLU80       0.3649
    131  OE1       23.4850   -8.9690    7.1520 O.co2  80  GLU80      -0.2457
    132  OE2       23.2710  -11.1640    7.3350 O.co2  80  GLU80      -0.2457
    133  N         22.1030   -6.5690   11.9730 N.am   81  TYR81      -0.1960
    134  CA        22.0600   -5.2060   12.4820 C.3    81  TYR81       0.1771
    135  C         22.1490   -4.1210   11.4180 C.2    81  TYR81       0.2619
    136  O         23.0960   -4.0880   10.6370 O.2    81  TYR81      -0.2715
    137  CB        23.2100   -5.0240   13.4560 C.3    81  TYR81       0.0574
    138  CG        23.2170   -3.6960   14.1530 C.ar   81  TYR81      -0.0198
    139  CD1       22.3470   -3.4460   15.2110 C.ar   81  TYR81      -0.0009
    140  CD2       24.1290   -2.7130   13.7970 C.ar   81  TYR81      -0.0009
    141  CE1       22.3930   -2.2550   15.9090 C.ar   81  TYR81       0.0417
    142  CE2       24.1840   -1.5140   14.4870 C.ar   81  TYR81       0.0417
    143  CZ        23.3150   -1.2910   15.5460 C.ar   81  TYR81       0.1957
    144  OH        23.3750   -0.1080   16.2460 O.3    81  TYR81      -0.2866
    145  N         21.1560   -3.2350   11.4000 N.am   82  MET82      -0.1963
    146  CA        21.1210   -2.1190   10.4550 C.3    82  MET82       0.1736
    147  C         21.7580   -0.9550   11.2310 C.2    82  MET82       0.2616
    148  O         21.1840   -0.4440   12.2000 O.2    82  MET82      -0.2715
    149  CB        19.6760   -1.8050   10.0680 C.3    82  MET82       0.0427
    150  CG        18.9500   -2.9200    9.2960 C.3    82  MET82       0.0599
    151  SD        19.4560   -3.0950    7.5540 S.3    82  MET82      -0.1393
    152  CE        18.4640   -1.7730    6.7480 C.3    82  MET82       0.0692
    153  N         22.9470   -0.5440   10.7960 N.am   83  GLU83      -0.1963
    154  CA        23.7270    0.4870   11.4860 C.3    83  GLU83       0.1733
    155  C         23.1020    1.8690   11.7060 C.2    83  GLU83       0.2616
    156  O         23.3410    2.4780   12.7320 O.2    83  GLU83      -0.2715
    157  CB        25.1060    0.6410   10.8020 C.3    83  GLU83       0.0429
    158  CG        25.8430   -0.6800   10.5180 C.3    83  GLU83       0.1163
    159  CD        26.9700   -0.9960   11.5130 C.2    83  GLU83       0.3649
    160  OE1       26.9220   -0.5090   12.6740 O.co2  83  GLU83      -0.2457
    161  OE2       27.9040   -1.7530   11.1410 O.co2  83  GLU83      -0.2457
    162  N         22.3030    2.3710   10.7730 N.am   84  ASN84      -0.1958
    163  CA        21.7370    3.6950   10.9870 C.3    84  ASN84       0.1819
    164  C         20.3560    3.7520   11.6530 C.2    84  ASN84       0.2622
    165  O         19.6670    4.7670   11.5920 O.2    84  ASN84      -0.2715
    166  CB        21.7520    4.4790    9.6760 C.3    84  ASN84       0.1195
    167  CG        23.1520    4.9470    9.3040 C.2    84  ASN84       0.2630
    168  OD1       23.8250    5.5900   10.0970 O.2    84  ASN84      -0.2716
    169  ND2       23.5890    4.6250    8.0910 N.am   84  ASN84      -0.0877
    170  N         19.9730    2.6610   12.3100 N.am   85  GLY85      -0.1940
    171  CA        18.6890    2.6120   12.9910 C.3    85  GLY85       0.2014
    172  C         17.4620    2.8890   12.1290 C.2    85  GLY85       0.2639
    173  O         17.4490    2.5700   10.9400 O.2    85  GLY85      -0.2714
    174  N         16.4310    3.4820   12.7340 N.am   86  SER86      -0.1949
    175  CA        15.1860    3.7910   12.0310 C.3    86  SER86       0.1924
    176  C         15.2520    5.0810   11.2180 C.2    86  SER86       0.2314
    177  O         15.8660    6.0770   11.6300 O.2    86  SER86      -0.2863
    178  CB        14.0200    3.9020   13.0110 C.3    86  SER86       0.2116
    179  OG        13.9020    5.2220   13.5000 O.3    86  SER86      -0.2180
    180  N         14.7060    8.4490   12.7870 N.3    89  ASP89      -0.1239
    181  CA        15.7840    8.9380   13.6330 C.3    89  ASP89       0.1674
    182  C         16.9650    9.3570   12.7880 C.2    89  ASP89       0.2266
    183  O         17.6190   10.3590   13.0640 O.2    89  ASP89      -0.2867
    184  CB        16.2180    7.8750   14.6400 C.3    89  ASP89       0.1410
    185  CG        15.2640    7.7690   15.8160 C.2    89  ASP89       0.3668
    186  OD1       14.4620    8.7170   16.0240 O.co2  89  ASP89      -0.2456
    187  OD2       15.3180    6.7470   16.5420 O.co2  89  ASP89      -0.2456
    188  N         13.9130    0.6580    8.5230 N.3   134  LEU134     -0.1245
    189  CA        15.3010    0.5940    8.9710 C.3   134  LEU134      0.1561
    190  C         16.2680    1.0200    7.8650 C.2   134  LEU134      0.2260
    191  O         16.0360    0.7540    6.6760 O.2   134  LEU134     -0.2867
    192  CB        15.6450   -0.8170    9.4490 C.3   134  LEU134      0.0270
    193  CG        15.0070   -1.1880   10.7860 C.3   134  LEU134      0.0019
    194  CD1       15.2840   -2.6450   11.1280 C.3   134  LEU134      0.0001
    195  CD2       15.5610   -0.2690   11.8680 C.3   134  LEU134      0.0001
    196  N         11.7250   -2.5220    5.1260 N.3   143  ILE143     -0.1231
    197  CA        10.4780   -2.4080    5.8670 C.3   143  ILE143      0.1692
    198  C         10.5000   -3.4060    7.0150 C.2   143  ILE143      0.2592
    199  O         10.8930   -4.5440    6.8430 O.2   143  ILE143     -0.2718
    200  CB         9.2780   -2.7270    4.9600 C.3   143  ILE143      0.0266
    201  CG1        9.2410   -1.7510    3.7810 C.3   143  ILE143      0.0019
    202  CG2        7.9950   -2.6480    5.7510 C.3   143  ILE143      0.0020
    203  CD1        8.1510   -2.0440    2.7610 C.3   143  ILE143      0.0001
    204  N         10.0630   -2.9620    8.1840 N.am  144  ALA144     -0.1966
    205  CA        10.0510   -3.8130    9.3590 C.3   144  ALA144      0.1728
    206  C          8.7180   -3.8080   10.0820 C.2   144  ALA144      0.2616
    207  O          7.8020   -3.0490    9.7440 O.2   144  ALA144     -0.2715
    208  CB        11.1420   -3.3670   10.3220 C.3   144  ALA144      0.0334
    209  N          8.6460   -4.6710   11.0910 N.am  145  ASP145     -0.1957
    210  CA         7.5040   -4.8350   11.9960 C.3   145  ASP145      0.1840
    211  C          6.0650   -4.5640   11.5310 C.2   145  ASP145      0.2622
    212  O          5.5530   -3.4510   11.7050 O.2   145  ASP145     -0.2715
    213  CB         7.7420   -4.0030   13.2650 C.3   145  ASP145      0.1450
    214  CG         9.0260   -4.3770   13.9940 C.2   145  ASP145      0.3671
    215  OD1        9.2250   -5.5670   14.3120 O.co2 145  ASP145     -0.2456
    216  OD2        9.8340   -3.4670   14.2880 O.co2 145  ASP145     -0.2456
    217  N          5.4100   -5.5770   10.9700 N.am  146  PHE146     -0.1974
    218  CA         4.0250   -5.4230   10.5460 C.3   146  PHE146      0.1639
    219  C          3.2430   -5.1720   11.8320 C.2   146  PHE146      0.2290
    220  O          3.6400   -5.6350   12.9000 O.2   146  PHE146     -0.2864
    221  CB         3.4960   -6.7150    9.9260 C.3   146  PHE146      0.0560
    222  CG         3.9560   -6.9720    8.5080 C.ar  146  PHE146     -0.0200
    223  CD1        4.9620   -6.2090    7.9180 C.ar  146  PHE146     -0.0042
    224  CD2        3.3370   -7.9690    7.7490 C.ar  146  PHE146     -0.0042
    225  CE1        5.3400   -6.4250    6.5900 C.ar  146  PHE146     -0.0003
    226  CE2        3.6970   -8.2010    6.4280 C.ar  146  PHE146     -0.0003
    227  CZ         4.6940   -7.4360    5.8370 C.ar  146  PHE146     -0.0000
@<TRIPOS>BOND
     1   100    99    1
     2    92    91    1
     3    88    89    2
     4    88    87    1
     5    94    95    1
     6   203   201    1
     7    87    86    1
     8    87    90    1
     9    91    90    1
    10    91    93    1
    11    99   101    1
    12    99    98    1
    13    98    95    1
    14   201   200    1
    15    95    96    1
    16    97    96    2
    17    96   102   am
    18   200   202    1
    19   200   197    1
    20   196   197    1
    21    81    80    2
    22   227   226   ar
    23   227   225   ar
    24   197   198    1
    25    73    72    2
    26   102   103    1
    27    76    75    1
    28   226   224   ar
    29    80    79    1
    30   225   223   ar
    31   191   190    2
    32   152   151    1
    33   199   198    2
    34   104   105    2
    35   104   103    1
    36   198   204   am
    37   103   106    1
    38   131   130   ar
    39    72    71    1
    40    72    78   am
    41   132   130   ar
    42    75    77    1
    43    75    74    1
    44   151   150    1
    45    79    78    1
    46    79    82    1
    47   224   222   ar
    48   130   129    1
    49   190   189    1
    50   223   222   ar
    51    71    74    1
    52    71    70    1
    53   169   167   am
    54   204   205    1
    55   106   108    1
    56   106   107    1
    57   222   221    1
    58   188   189    1
    59    82    83    1
    60   189   192    1
    61   129   128    1
    62   150   149    1
    63   167   166    1
    64   167   168    2
    65   205   206    1
    66   205   208    1
    67   192   193    1
    68   128   125    1
    69    83    84    1
    70   166   163    1
    71   207   206    2
    72   221   218    1
    73   149   146    1
    74   206   209   am
    75   146   147    1
    76   146   145    1
    77   158   157    1
    78   158   159    1
    79   218   217    1
    80   218   219    1
    81    85    84    1
    82   136   135    2
    83   162   163    1
    84   162   155   am
    85   193   194    1
    86   193   195    1
    87   153   147   am
    88   153   154    1
    89   157   154    1
    90   125   124    1
    91   125   126    1
    92   173   172    2
    93   217   211   am
    94   124   119   am
    95   163   164    1
    96   127   126    2
    97    64    63    2
    98   209   210    1
    99   161   159   ar
   100   176   177    2
   101   176   175    1
   102   147   148    2
   103   126   133   am
   104   145   135   am
   105   135   134    1
   106   154   155    1
   107   159   160   ar
   108   211   212    2
   109   211   210    1
   110   165   164    2
   111   164   170   am
   112   155   156    2
   113   219   220    2
   114   121   123    1
   115   121   118    1
   116   121   122    1
   117   133   134    1
   118   210   213    1
   119   175   174    1
   120   175   178    1
   121    63    62    1
   122   172   174   am
   123   172   171    1
   124   118   119    1
   125   118   117    1
   126   119   120    2
   127   170   171    1
   128   134   137    1
   129   180   181    1
   130   182   183    2
   131   182   181    1
   132    62    61    1
   133    62    65    1
   134   178   179    1
   135   213   214    1
   136    66    65    1
   137    66    67    1
   138   137   138    1
   139   181   184    1
   140   140   138   ar
   141   140   142   ar
   142   214   216   ar
   143   214   215   ar
   144   138   139   ar
   145    69    67   ar
   146    67    68   ar
   147   142   143   ar
   148   184   185    1
   149   115   113    1
   150   139   141   ar
   151    44    41    1
   152    40    41    1
   153   143   141   ar
   154   143   144    1
   155   185   186   ar
   156   185   187   ar
   157    43    42    2
   158   116   114    1
   159    60    59    1
   160   113   114    1
   161   113   110    1
   162   111   110    1
   163   111   112    2
   164    41    42    1
   165   110   109    1
   166    42    45   am
   167    59    58    1
   168    45    46    1
   169    58    57    1
   170    56    57    1
   171    56    53    1
   172    27    26    1
   173    46    47    1
   174    46    49    1
   175    38    37    1
   176    51    49    1
   177    52    47   am
   178    52    53    1
   179    47    48    2
   180    39    37    1
   181    49    50    1
   182    53    54    1
   183    37    34    1
   184    26    28    1
   185    26    25    1
   186    55    54    2
   187    25    22    1
   188    34    35    1
   189    34    33    1
   190    35    36    2
   191     8     7   ar
   192    22    23    1
   193    22    21    1
   194    24    23    2
   195    23    29   am
   196    29    30    1
   197    30    31    1
   198    21    12   am
   199     7     9   ar
   200     7     6    1
   201     4     3    2
   202     6     5    1
   203     5     2    1
   204    31    32    2
   205    12    13    2
   206    12    11    1
   207     3     2    1
   208     3    10   am
   209     1     2    1
   210    11    10    1
   211    11    14    1
   212    15    14    1
   213    15    16    1
   214    16    17    1
   215    17    18    2
   216    18    20    1
   217    18    19    1
