@<TRIPOS>MOLECULE
tmp/3b2xA00.pdb
 131 125 0 0 0
SMALL
GASTEIGER

@<TRIPOS>ATOM
      1  N         70.9270  -28.3890  -10.9500 N.3   115  GLN115     -0.1245
      2  CA        70.2470  -27.1120  -11.0980 C.3   115  GLN115      0.1566
      3  C         69.8720  -27.0030  -12.5650 C.2   115  GLN115      0.2260
      4  O         70.7540  -26.9660  -13.4300 O.2   115  GLN115     -0.2867
      5  CB        71.1150  -25.9310  -10.6710 C.3   115  GLN115      0.0367
      6  CG        70.4690  -24.5720  -10.9990 C.3   115  GLN115      0.0905
      7  CD        69.1070  -24.3570  -10.3240 C.2   115  GLN115      0.2608
      8  OE1       68.8530  -24.8570   -9.2300 O.2   115  GLN115     -0.2717
      9  NE2       68.2280  -23.6020  -10.9880 N.am  115  GLN115     -0.0878
     10  N         67.0180  -24.8520  -13.8180 N.3   117  GLU117     -0.1245
     11  CA        66.5240  -23.5490  -14.2940 C.3   117  GLU117      0.1567
     12  C         67.7050  -22.6100  -14.5960 C.2   117  GLU117      0.2260
     13  O         68.6460  -22.5290  -13.7910 O.2   117  GLU117     -0.2867
     14  CB        65.5590  -22.9060  -13.2860 C.3   117  GLU117      0.0388
     15  CG        64.8190  -21.7210  -13.8770 C.3   117  GLU117      0.1160
     16  CD        63.8860  -21.0240  -12.9150 C.2   117  GLU117      0.3649
     17  OE1       63.7810  -21.4690  -11.7430 O.co2 117  GLU117     -0.2457
     18  OE2       63.2650  -20.0190  -13.3430 O.co2 117  GLU117     -0.2457
     19  N         72.6450  -19.5470   -6.9110 N.3   256  MET256     -0.1230
     20  CA        71.5960  -18.6320   -6.4900 C.3   256  MET256      0.1702
     21  C         71.1960  -18.9080   -5.0330 C.2   256  MET256      0.2593
     22  O         72.0580  -19.2740   -4.2150 O.2   256  MET256     -0.2718
     23  CB        70.4280  -18.6980   -7.4870 C.3   256  MET256      0.0401
     24  CG        70.7440  -17.9700   -8.7940 C.3   256  MET256      0.0596
     25  SD        70.6240  -16.1830   -8.5490 S.3   256  MET256     -0.1393
     26  CE        68.8350  -15.9890   -8.6150 C.3   256  MET256      0.0692
     27  N         69.9260  -18.6930   -4.7000 N.am  257  GLY257     -0.1942
     28  CA        69.4650  -18.8320   -3.3270 C.3   257  GLY257      0.2014
     29  C         68.8440  -20.1880   -3.0740 C.2   257  GLY257      0.2639
     30  O         69.2010  -20.8760   -2.1190 O.2   257  GLY257     -0.2714
     31  N         67.8970  -20.5630   -3.9260 N.am  258  ALA258     -0.1963
     32  CA        67.2110  -21.8430   -3.7960 C.3   258  ALA258      0.1728
     33  C         66.4380  -22.1230   -5.0770 C.2   258  ALA258      0.2616
     34  O         66.4250  -21.2910   -5.9910 O.2   258  ALA258     -0.2715
     35  CB        66.2800  -21.8240   -2.5770 C.3   258  ALA258      0.0334
     36  N         65.7900  -23.2810   -5.1510 N.am  259  MET259     -0.1963
     37  CA        65.1250  -23.6720   -6.3950 C.3   259  MET259      0.1736
     38  C         63.8860  -24.5210   -6.1020 C.2   259  MET259      0.2616
     39  O         63.9510  -25.4920   -5.3450 O.2   259  MET259     -0.2715
     40  CB        66.1100  -24.4280   -7.2960 C.3   259  MET259      0.0427
     41  CG        65.5170  -24.9190   -8.6010 C.3   259  MET259      0.0599
     42  SD        64.9100  -23.5350   -9.5960 S.3   259  MET259     -0.1393
     43  CE        63.5270  -24.3450  -10.4270 C.3   259  MET259      0.0692
     44  N         62.7770  -24.1560   -6.7410 N.am  260  GLU260     -0.1977
     45  CA        61.4760  -24.7320   -6.4430 C.3   260  GLU260      0.1602
     46  C         61.1690  -26.0810   -7.1350 C.2   260  GLU260      0.2287
     47  O         60.0010  -26.3580   -7.4300 O.2   260  GLU260     -0.2864
     48  CB        60.3710  -23.7140   -6.7770 C.3   260  GLU260      0.0415
     49  CG        60.1590  -23.4450   -8.2820 C.3   260  GLU260      0.1163
     50  CD        60.9760  -22.2660   -8.8330 C.2   260  GLU260      0.3649
     51  OE1       62.0180  -21.9110   -8.2430 O.co2 260  GLU260     -0.2457
     52  OE2       60.5890  -21.7100   -9.8960 O.co2 260  GLU260     -0.2457
     53  N         59.1590  -18.5450   -0.1300 N.3   293  HIS293     -0.1226
     54  CA        59.2420  -18.2900   -1.5770 C.3   293  HIS293      0.1752
     55  C         59.1870  -19.5820   -2.3940 C.2   293  HIS293      0.2595
     56  O         58.3260  -19.7290   -3.2810 O.2   293  HIS293     -0.2718
     57  CB        60.5360  -17.5370   -1.8820 C.3   293  HIS293      0.0759
     58  CG        60.6660  -17.1100   -3.3100 C.ar  293  HIS293      0.0818
     59  ND1       60.3070  -15.8510   -3.7430 N.ar  293  HIS293     -0.2268
     60  CD2       61.1430  -17.7630   -4.4010 C.ar  293  HIS293      0.1154
     61  CE1       60.5510  -15.7490   -5.0410 C.ar  293  HIS293      0.1986
     62  NE2       61.0550  -16.8950   -5.4620 N.ar  293  HIS293     -0.2212
     63  N         60.0940  -20.5180   -2.1060 N.am  294  GLU294     -0.1979
     64  CA        60.1490  -21.7590   -2.9110 C.3   294  GLU294      0.1602
     65  C         58.8730  -22.5710   -2.7220 C.2   294  GLU294      0.2287
     66  O         58.3780  -23.1680   -3.6720 O.2   294  GLU294     -0.2864
     67  CB        61.4250  -22.5920   -2.6600 C.3   294  GLU294      0.0415
     68  CG        62.7360  -21.7880   -2.7150 C.3   294  GLU294      0.1163
     69  CD        62.9450  -20.9880   -4.0070 C.2   294  GLU294      0.3649
     70  OE1       62.2520  -21.2380   -5.0150 O.co2 294  GLU294     -0.2457
     71  OE2       63.8330  -20.1040   -4.0220 O.co2 294  GLU294     -0.2457
     72  N         56.0580  -21.1330   -4.8560 N.3   297  HIS297     -0.1241
     73  CA        56.1850  -21.4840   -6.2820 C.3   297  HIS297      0.1621
     74  C         55.4040  -22.7530   -6.6110 C.2   297  HIS297      0.2264
     75  O         55.1130  -23.0110   -7.7840 O.2   297  HIS297     -0.2867
     76  CB        57.6360  -21.7460   -6.6650 C.3   297  HIS297      0.0745
     77  CG        58.3750  -20.5400   -7.1550 C.ar  297  HIS297      0.0817
     78  ND1       57.8990  -19.7350   -8.1710 N.ar  297  HIS297     -0.2268
     79  CD2       59.5950  -20.0450   -6.8240 C.ar  297  HIS297      0.1154
     80  CE1       58.7860  -18.7880   -8.4320 C.ar  297  HIS297      0.1986
     81  NE2       59.8220  -18.9530   -7.6280 N.ar  297  HIS297     -0.2212
     82  N         57.9950  -15.1290  -10.9240 N.3   316  GLU316     -0.1245
     83  CA        58.9040  -14.4910   -9.9390 C.3   316  GLU316      0.1567
     84  C         58.3100  -13.2520   -9.2740 C.2   316  GLU316      0.2260
     85  O         58.4350  -13.0970   -8.0620 O.2   316  GLU316     -0.2867
     86  CB        60.2890  -14.1840  -10.5130 C.3   316  GLU316      0.0388
     87  CG        61.0400  -15.4190  -10.9790 C.3   316  GLU316      0.1160
     88  CD        61.1780  -16.4860   -9.8900 C.2   316  GLU316      0.3649
     89  OE1       61.0340  -16.1390   -8.6930 O.co2 316  GLU316     -0.2457
     90  OE2       61.4360  -17.6610  -10.2260 O.co2 316  GLU316     -0.2457
     91  N         70.0860  -16.6700  -17.8560 N.3   369  ASN369     -0.1240
     92  CA        70.4960  -16.5800  -16.4440 C.3   369  ASN369      0.1653
     93  C         70.8240  -15.1500  -16.0040 C.2   369  ASN369      0.2266
     94  O         70.8880  -14.8700  -14.8040 O.2   369  ASN369     -0.2867
     95  CB        71.6480  -17.5290  -16.1270 C.3   369  ASN369      0.1155
     96  CG        71.2040  -18.9880  -16.0570 C.2   369  ASN369      0.2627
     97  OD1       70.1190  -19.3230  -15.5430 O.2   369  ASN369     -0.2716
     98  ND2       72.0520  -19.8710  -16.5730 N.am  369  ASN369     -0.0877
     99  N         67.4920  -13.0500  -13.9690 N.3   372  TYR372     -0.1241
    100  CA        66.9700  -13.3170  -12.6250 C.3   372  TYR372      0.1605
    101  C         67.3110  -12.1060  -11.7670 C.2   372  TYR372      0.2264
    102  O         68.1690  -12.1530  -10.8790 O.2   372  TYR372     -0.2867
    103  CB        67.5390  -14.6480  -12.0980 C.3   372  TYR372      0.0534
    104  CG        66.8740  -15.7780  -12.8340 C.ar  372  TYR372     -0.0201
    105  CD1       67.2470  -16.0850  -14.1520 C.ar  372  TYR372     -0.0009
    106  CD2       65.7930  -16.4600  -12.2710 C.ar  372  TYR372     -0.0009
    107  CE1       66.5950  -17.0720  -14.8650 C.ar  372  TYR372      0.0417
    108  CE2       65.1350  -17.4560  -12.9710 C.ar  372  TYR372      0.0417
    109  CZ        65.5430  -17.7550  -14.2740 C.ar  372  TYR372      0.1957
    110  OH        64.8920  -18.7220  -14.9860 O.3   372  TYR372     -0.2866
    111  N         62.1750   -9.6590  -10.3800 N.3   377  TYR377     -0.1241
    112  CA        61.7230  -10.0810   -9.0510 C.3   377  TYR377      0.1605
    113  C         61.0740   -8.9540   -8.2570 C.2   377  TYR377      0.2264
    114  O         59.8670   -8.9740   -7.9990 O.2   377  TYR377     -0.2867
    115  CB        62.9150  -10.6220   -8.2530 C.3   377  TYR377      0.0534
    116  CG        63.2880  -12.0480   -8.5690 C.ar  377  TYR377     -0.0201
    117  CD1       63.7710  -12.4170   -9.8350 C.ar  377  TYR377     -0.0009
    118  CD2       63.1460  -13.0490   -7.6050 C.ar  377  TYR377     -0.0009
    119  CE1       64.1150  -13.7430  -10.1210 C.ar  377  TYR377      0.0417
    120  CE2       63.4970  -14.3680   -7.8790 C.ar  377  TYR377      0.0417
    121  CZ        63.9750  -14.7180   -9.1370 C.ar  377  TYR377      0.1957
    122  OH        64.2940  -16.0340   -9.3980 O.3   377  TYR377     -0.2866
    123  N         78.0670  -17.7220  -14.3760 N.3   817  GLN817     -0.1245
    124  CA        76.9430  -17.1050  -13.6640 C.3   817  GLN817      0.1566
    125  C         77.4270  -16.2130  -12.5260 C.2   817  GLN817      0.2260
    126  O         76.9400  -15.0960  -12.3550 O.2   817  GLN817     -0.2867
    127  CB        75.9950  -18.1570  -13.1080 C.3   817  GLN817      0.0367
    128  CG        75.0350  -18.7110  -14.1150 C.3   817  GLN817      0.0905
    129  CD        74.1010  -19.7010  -13.4690 C.2   817  GLN817      0.2608
    130  OE1       73.3680  -19.3590  -12.5360 O.2   817  GLN817     -0.2717
    131  NE2       74.1470  -20.9390  -13.9250 N.am  817  GLN817     -0.0878
@<TRIPOS>BOND
     1    91    92    1
     2    98    96   am
     3    92    95    1
     4    92    93    1
     5    95    96    1
     6    96    97    2
     7    93    94    2
     8   110   109    1
     9   107   109   ar
    10   107   105   ar
    11    12    11    1
    12    12    13    2
    13   123   124    1
    14    11    10    1
    15    11    14    1
    16   109   108   ar
    17   105   104   ar
    18   128   129    1
    19   128   127    1
    20    99   100    1
    21   131   129   am
    22    15    14    1
    23    15    16    1
    24   124   127    1
    25   124   125    1
    26   129   130    2
    27     4     3    2
    28    18    16   ar
    29   108   106   ar
    30    16    17   ar
    31   104   106   ar
    32   104   103    1
    33   100   103    1
    34   100   101    1
    35     3     2    1
    36   125   126    2
    37   101   102    2
    38     2     1    1
    39     2     5    1
    40     6     5    1
    41     6     7    1
    42     9     7   am
    43    87    86    1
    44    87    88    1
    45    82    83    1
    46    86    83    1
    47    43    42    1
    48   111   112    1
    49     7     8    2
    50    90    88   ar
    51   119   117   ar
    52   119   121   ar
    53    83    84    1
    54    52    50   ar
    55    88    89   ar
    56   117   116   ar
    57    42    41    1
    58   122   121    1
    59    84    85    2
    60   121   120   ar
    61   112   113    1
    62   112   115    1
    63    50    49    1
    64    50    51   ar
    65    24    25    1
    66    24    23    1
    67    26    25    1
    68    41    40    1
    69   116   115    1
    70   116   118   ar
    71    80    78   ar
    72    80    81   ar
    73    49    48    1
    74   113   114    2
    75    78    77   ar
    76   120   118   ar
    77    75    74    2
    78    81    79   ar
    79    23    20    1
    80    47    46    2
    81    40    37    1
    82    77    79   ar
    83    77    76    1
    84    46    45    1
    85    19    20    1
    86    48    45    1
    87    44    45    1
    88    44    38   am
    89    76    73    1
    90    74    73    1
    91    20    21    1
    92    37    38    1
    93    37    36    1
    94    73    72    1
    95    38    39    2
    96    34    33    2
    97    62    61   ar
    98    62    60   ar
    99    36    33   am
   100    33    32    1
   101    61    59   ar
   102    21    27   am
   103    21    22    2
   104    70    69   ar
   105    27    28    1
   106    60    58   ar
   107    71    69   ar
   108    69    68    1
   109    31    32    1
   110    31    29   am
   111    32    35    1
   112    59    58   ar
   113    66    65    2
   114    28    29    1
   115    58    57    1
   116    56    55    2
   117    29    30    2
   118    64    65    1
   119    64    67    1
   120    64    63    1
   121    68    67    1
   122    55    63   am
   123    55    54    1
   124    57    54    1
   125    54    53    1
