@<TRIPOS>MOLECULE
tmp/3b34A02.pdb
 112 106 0 0 0
SMALL
GASTEIGER

@<TRIPOS>ATOM
      1  N        -64.5650   -1.3970   -4.2360 N.3   345  ARG345     -0.1245
      2  CA       -65.1830   -2.7090   -4.4440 C.3   345  ARG345      0.1563
      3  C        -66.7040   -2.6240   -4.5970 C.2   345  ARG345      0.2260
      4  O        -67.2760   -3.2830   -5.4680 O.2   345  ARG345     -0.2867
      5  CB       -64.8210   -3.6500   -3.3000 C.3   345  ARG345      0.0307
      6  CG       -63.3600   -4.0170   -3.2200 C.3   345  ARG345      0.0489
      7  CD       -63.1250   -4.9760   -2.0640 C.3   345  ARG345      0.2205
      8  NE       -61.7880   -5.5550   -2.1020 N.pl3 345  ARG345     -0.0865
      9  CZ       -61.1470   -6.0380   -1.0410 C.cat 345  ARG345      0.5346
     10  NH1      -61.7060   -6.0090    0.1590 N.pl3 345  ARG345      0.1354
     11  NH2      -59.9330   -6.5440   -1.1860 N.pl3 345  ARG345      0.1354
     12  N        -50.6040  -13.4910    2.6710 N.3   527  ALA527     -0.1231
     13  CA       -51.4500  -12.3200    2.5660 C.3   527  ALA527      0.1694
     14  C        -51.2080  -11.7840    1.1590 C.2   527  ALA527      0.2592
     15  O        -50.0590  -11.5220    0.7610 O.2   527  ALA527     -0.2718
     16  CB       -51.1110  -11.2930    3.6280 C.3   527  ALA527      0.0304
     17  N        -52.2880  -11.6470    0.4010 N.am  528  LEU528     -0.1966
     18  CA       -52.2140  -11.3190   -1.0150 C.3   528  LEU528      0.1728
     19  C        -52.8690   -9.9820   -1.3170 C.2   528  LEU528      0.2616
     20  O        -53.8630   -9.6040   -0.6830 O.2   528  LEU528     -0.2715
     21  CB       -52.8930  -12.4100   -1.8530 C.3   528  LEU528      0.0311
     22  CG       -52.3790  -13.8530   -1.7470 C.3   528  LEU528      0.0022
     23  CD1      -53.3390  -14.7980   -2.4450 C.3   528  LEU528      0.0001
     24  CD2      -50.9650  -13.9910   -2.3040 C.3   528  LEU528      0.0001
     25  N        -52.3190   -9.2730   -2.3050 N.am  529  LEU529     -0.1963
     26  CA       -52.7990   -7.9350   -2.6720 C.3   529  LEU529      0.1728
     27  C        -52.8370   -7.0190   -1.4470 C.2   529  LEU529      0.2616
     28  O        -53.8220   -6.3310   -1.1910 O.2   529  LEU529     -0.2715
     29  CB       -54.1700   -8.0100   -3.3680 C.3   529  LEU529      0.0311
     30  CG       -54.5710   -6.8290   -4.2630 C.3   529  LEU529      0.0022
     31  CD1      -53.7650   -6.8440   -5.5560 C.3   529  LEU529      0.0001
     32  CD2      -56.0690   -6.8410   -4.5360 C.3   529  LEU529      0.0001
     33  N        -51.7460   -7.0230   -0.6890 N.am  530  CYS530     -0.1968
     34  CA       -51.6470   -6.2560    0.5390 C.3   530  CYS530      0.1712
     35  C        -51.9410   -4.7770    0.3130 C.2   530  CYS530      0.2296
     36  O        -51.5000   -4.1800   -0.6830 O.2   530  CYS530     -0.2864
     37  CB       -50.2710   -6.4460    1.1780 C.3   530  CYS530      0.0983
     38  SG       -49.9550   -8.1310    1.7040 S.3   530  CYS530     -0.0798
     39  N        -59.5580  -10.3160   -6.6930 N.3   538  LEU538     -0.1245
     40  CA       -58.6500  -11.4110   -6.3600 C.3   538  LEU538      0.1561
     41  C        -59.4050  -12.7360   -6.3010 C.2   538  LEU538      0.2260
     42  O        -60.4190  -12.8530   -5.6050 O.2   538  LEU538     -0.2867
     43  CB       -57.9560  -11.1400   -5.0220 C.3   538  LEU538      0.0270
     44  CG       -57.0380  -12.2640   -4.5140 C.3   538  LEU538      0.0019
     45  CD1      -55.8400  -12.4660   -5.4370 C.3   538  LEU538      0.0001
     46  CD2      -56.5880  -12.0100   -3.0880 C.3   538  LEU538      0.0001
     47  N        -59.0270  -19.6010   -0.7100 N.3   542  TRP542     -0.1241
     48  CA       -58.7940  -19.5390    0.7370 C.3   542  TRP542      0.1605
     49  C        -59.4880  -20.6860    1.4760 C.2   542  TRP542      0.2264
     50  O        -60.6020  -21.0760    1.1130 O.2   542  TRP542     -0.2867
     51  CB       -59.3560  -18.2510    1.3270 C.3   542  TRP542      0.0550
     52  CG       -58.7300  -17.0130    0.8170 C.ar  542  TRP542      0.0003
     53  CD1      -59.2800  -16.1300   -0.0630 C.ar  542  TRP542      0.0946
     54  CD2      -57.4290  -16.5060    1.1450 C.ar  542  TRP542      0.0152
     55  NE1      -58.4040  -15.0960   -0.3030 N.ar  542  TRP542     -0.2442
     56  CE2      -57.2620  -15.2970    0.4290 C.ar  542  TRP542      0.0810
     57  CE3      -56.3940  -16.9510    1.9830 C.ar  542  TRP542      0.0012
     58  CZ2      -56.0900  -14.5270    0.5080 C.ar  542  TRP542      0.0191
     59  CZ3      -55.2170  -16.1790    2.0610 C.ar  542  TRP542      0.0001
     60  CH2      -55.0890  -14.9790    1.3280 C.ar  542  TRP542      0.0015
     61  N        -57.9030  -17.6380    6.6430 N.3   547  LEU547     -0.1245
     62  CA       -58.4940  -16.3140    6.8350 C.3   547  LEU547      0.1561
     63  C        -58.5530  -15.9210    8.3010 C.2   547  LEU547      0.2260
     64  O        -58.1730  -14.7950    8.6550 O.2   547  LEU547     -0.2867
     65  CB       -59.8490  -16.2130    6.1430 C.3   547  LEU547      0.0270
     66  CG       -59.7450  -16.2770    4.6170 C.3   547  LEU547      0.0019
     67  CD1      -61.1260  -16.3910    3.9750 C.3   547  LEU547      0.0001
     68  CD2      -58.9460  -15.0770    4.0670 C.3   547  LEU547      0.0001
     69  N        -55.0840  -15.0550    9.4510 N.3   550  LEU550     -0.1245
     70  CA       -54.7380  -13.6830    9.0760 C.3   550  LEU550      0.1561
     71  C        -55.4320  -12.6330    9.9470 C.2   550  LEU550      0.2260
     72  O        -54.8290  -11.6120   10.2860 O.2   550  LEU550     -0.2867
     73  CB       -55.0300  -13.4390    7.6010 C.3   550  LEU550      0.0270
     74  CG       -54.1160  -14.1690    6.6120 C.3   550  LEU550      0.0019
     75  CD1      -54.6520  -13.9660    5.2050 C.3   550  LEU550      0.0001
     76  CD2      -52.6310  -13.7360    6.7160 C.3   550  LEU550      0.0001
     77  N        -55.0850   -3.3660    7.7540 N.3   558  PHE558     -0.1227
     78  CA       -55.8920   -3.5540    6.5510 C.3   558  PHE558      0.1736
     79  C        -56.0710   -5.0370    6.1990 C.2   558  PHE558      0.2596
     80  O        -57.1750   -5.4620    5.8380 O.2   558  PHE558     -0.2718
     81  CB       -55.3620   -2.7920    5.3320 C.3   558  PHE558      0.0547
     82  CG       -56.1560   -3.0770    4.0960 C.ar  558  PHE558     -0.0202
     83  CD1      -57.2880   -2.3240    3.7960 C.ar  558  PHE558     -0.0042
     84  CD2      -55.8310   -4.1560    3.2710 C.ar  558  PHE558     -0.0042
     85  CE1      -58.0650   -2.6180    2.6780 C.ar  558  PHE558     -0.0003
     86  CE2      -56.6050   -4.4620    2.1550 C.ar  558  PHE558     -0.0003
     87  CZ       -57.7270   -3.6800    1.8540 C.ar  558  PHE558     -0.0000
     88  N        -54.9850   -5.8100    6.2860 N.am  559  SER559     -0.1952
     89  CA       -55.0150   -7.2490    5.9720 C.3   559  SER559      0.1924
     90  C        -55.9530   -8.0330    6.8820 C.2   559  SER559      0.2314
     91  O        -56.5920   -8.9950    6.4410 O.2   559  SER559     -0.2863
     92  CB       -53.6180   -7.8580    6.0600 C.3   559  SER559      0.2116
     93  OG       -52.7860   -7.3900    5.0220 O.3   559  SER559     -0.2180
     94  N        -59.4450   -7.2000    5.6570 N.3   562  ASP562     -0.1225
     95  CA       -59.6320   -7.8080    4.3440 C.3   562  ASP562      0.1805
     96  C        -59.8610   -9.3250    4.4510 C.2   562  ASP562      0.2597
     97  O        -60.6960   -9.8790    3.7360 O.2   562  ASP562     -0.2718
     98  CB       -58.4320   -7.5040    3.4500 C.3   562  ASP562      0.1424
     99  CG       -58.7540   -7.5930    1.9810 C.2   562  ASP562      0.3668
    100  OD1      -59.9420   -7.4960    1.6010 O.co2 562  ASP562     -0.2456
    101  OD2      -57.8000   -7.7190    1.1890 O.co2 562  ASP562     -0.2456
    102  N        -59.1120   -9.9900    5.3300 N.am  563  ALA563     -0.1979
    103  CA       -59.3060  -11.4190    5.6070 C.3   563  ALA563      0.1597
    104  C        -60.7330  -11.7020    6.1140 C.2   563  ALA563      0.2287
    105  O        -61.3870  -12.6690    5.6860 O.2   563  ALA563     -0.2864
    106  CB       -58.2840  -11.8830    6.6120 C.3   563  ALA563      0.0319
    107  N        -63.1020  -11.5440    3.1180 N.3   566  SER566     -0.1217
    108  CA       -63.0430  -12.7840    2.3420 C.3   566  SER566      0.1889
    109  C        -63.8110  -13.9260    3.0290 C.2   566  SER566      0.2288
    110  O        -64.5190  -14.7100    2.3680 O.2   566  SER566     -0.2866
    111  CB       -61.5940  -13.2010    2.0950 C.3   566  SER566      0.2089
    112  OG       -60.9270  -12.2380    1.2920 O.3   566  SER566     -0.2183
@<TRIPOS>BOND
     1    39    40    1
     2    40    41    1
     3    40    43    1
     4    41    42    2
     5    31    30    1
     6     4     3    2
     7    45    44    1
     8    43    44    1
     9     3     2    1
    10    32    30    1
    11    44    46    1
    12     2     1    1
    13     2     5    1
    14    30    29    1
    15    29    26    1
    16     5     6    1
    17     6     7    1
    18    26    25    1
    19    26    27    1
    20    23    22    1
    21    25    19   am
    22    24    22    1
    23     8     7    1
    24     8     9    2
    25    21    22    1
    26    21    18    1
    27    27    28    2
    28    27    33   am
    29    19    18    1
    30    19    20    2
    31    11     9    1
    32     9    10    1
    33    18    17    1
    34    47    48    1
    35    33    34    1
    36    36    35    2
    37    55    53   ar
    38    55    56   ar
    39    53    52   ar
    40    35    34    1
    41    17    14   am
    42    56    58   ar
    43    56    54   ar
    44    58    60   ar
    45    34    37    1
    46    48    51    1
    47    48    49    1
    48    15    14    2
    49    52    54   ar
    50    52    51    1
    51    50    49    2
    52    54    57   ar
    53    14    13    1
    54    37    38    1
    55   101    99   ar
    56   112   111    1
    57    60    59   ar
    58   100    99   ar
    59    87    86   ar
    60    87    85   ar
    61    99    98    1
    62    57    59   ar
    63   111   108    1
    64    86    84   ar
    65   108   109    1
    66   108   107    1
    67   110   109    2
    68    13    12    1
    69    13    16    1
    70    85    83   ar
    71    84    82   ar
    72    98    95    1
    73    97    96    2
    74    83    82   ar
    75    67    66    1
    76    68    66    1
    77    82    81    1
    78    95    96    1
    79    95    94    1
    80    96   102   am
    81    66    65    1
    82    93    92    1
    83    75    74    1
    84   102   103    1
    85    81    78    1
    86   103   104    1
    87   103   106    1
    88   105   104    2
    89    80    79    2
    90    89    92    1
    91    89    88    1
    92    89    90    1
    93    65    62    1
    94    79    88   am
    95    79    78    1
    96    91    90    2
    97    78    77    1
    98    74    76    1
    99    74    73    1
   100    61    62    1
   101    62    63    1
   102    73    70    1
   103    63    64    2
   104    70    69    1
   105    70    71    1
   106    71    72    2
