@<TRIPOS>MOLECULE
tmp/3b34A00.pdb
 164 159 0 0 0
SMALL
GASTEIGER

@<TRIPOS>ATOM
      1  N        -71.0220   28.5500  -10.9660 N.3   115  GLN115     -0.1245
      2  CA       -70.3640   27.2550  -11.1190 C.3   115  GLN115      0.1566
      3  C        -69.9890   27.1280  -12.5870 C.2   115  GLN115      0.2260
      4  O        -70.8700   27.0470  -13.4560 O.2   115  GLN115     -0.2867
      5  CB       -71.2450   26.0720  -10.6750 C.3   115  GLN115      0.0367
      6  CG       -70.5560   24.7000  -10.8850 C.3   115  GLN115      0.0905
      7  CD       -69.1550   24.6500  -10.2660 C.2   115  GLN115      0.2608
      8  OE1      -68.9630   25.0190   -9.1080 O.2   115  GLN115     -0.2717
      9  NE2      -68.1690   24.1890  -11.0400 N.am  115  GLN115     -0.0878
     10  N        -67.0830   24.9860  -13.7910 N.3   117  GLU117     -0.1231
     11  CA       -66.6050   23.6610  -14.2380 C.3   117  GLU117      0.1699
     12  C        -67.8000   22.7720  -14.5690 C.2   117  GLU117      0.2592
     13  O        -68.7540   22.7660  -13.7950 O.2   117  GLU117     -0.2718
     14  CB       -65.7310   22.9840  -13.1820 C.3   117  GLU117      0.0402
     15  CG       -64.9770   21.7980  -13.7730 C.3   117  GLU117      0.1161
     16  CD       -64.0650   21.0830  -12.7930 C.2   117  GLU117      0.3649
     17  OE1      -63.9180   21.5590  -11.6510 O.co2 117  GLU117     -0.2457
     18  OE2      -63.4830   20.0480  -13.1880 O.co2 117  GLU117     -0.2457
     19  N        -67.7760   22.0170  -15.6720 N.am  118  ALA118     -0.1980
     20  CA       -66.7180   22.0070  -16.6920 C.3   118  ALA118      0.1597
     21  C        -66.8700   23.1270  -17.7380 C.2   118  ALA118      0.2287
     22  O        -65.8960   23.8140  -18.0650 O.2   118  ALA118     -0.2864
     23  CB       -66.6590   20.6490  -17.3870 C.3   118  ALA118      0.0319
     24  N        -76.2820   23.6620   -4.6480 N.3   254  PHE254     -0.1227
     25  CA       -75.0350   23.2740   -5.3090 C.3   254  PHE254      0.1736
     26  C        -75.1440   21.8180   -5.7290 C.2   254  PHE254      0.2595
     27  O        -75.5170   20.9560   -4.9150 O.2   254  PHE254     -0.2718
     28  CB       -73.8630   23.4680   -4.3480 C.3   254  PHE254      0.0547
     29  CG       -72.5230   23.5590   -5.0270 C.ar  254  PHE254     -0.0202
     30  CD1      -72.1250   24.7380   -5.6690 C.ar  254  PHE254     -0.0042
     31  CD2      -71.6490   22.4760   -5.0100 C.ar  254  PHE254     -0.0042
     32  CE1      -70.8760   24.8200   -6.2980 C.ar  254  PHE254     -0.0003
     33  CE2      -70.4050   22.5510   -5.6260 C.ar  254  PHE254     -0.0003
     34  CZ       -70.0220   23.7170   -6.2710 C.ar  254  PHE254     -0.0000
     35  N        -74.8300   21.5500   -6.9900 N.am  255  ASN255     -0.1960
     36  CA       -75.0230   20.1990   -7.5360 C.3   255  ASN255      0.1819
     37  C        -73.9950   19.1890   -7.0490 C.2   255  ASN255      0.2621
     38  O        -74.3000   17.9980   -6.9500 O.2   255  ASN255     -0.2715
     39  CB       -75.0050   20.2160   -9.0630 C.3   255  ASN255      0.1195
     40  CG       -76.2350   20.8850   -9.6730 C.2   255  ASN255      0.2630
     41  OD1      -77.3170   20.9250   -9.0760 O.2   255  ASN255     -0.2716
     42  ND2      -76.0670   21.4060  -10.8800 N.am  255  ASN255     -0.0877
     43  N        -72.7810   19.6560   -6.7630 N.am  256  MET256     -0.1963
     44  CA       -71.6710   18.7710   -6.4080 C.3   256  MET256      0.1736
     45  C        -71.2620   18.9700   -4.9470 C.2   256  MET256      0.2617
     46  O        -72.0960   19.3440   -4.1140 O.2   256  MET256     -0.2715
     47  CB       -70.5110   19.0070   -7.3810 C.3   256  MET256      0.0427
     48  CG       -70.8500   18.5810   -8.8110 C.3   256  MET256      0.0599
     49  SD       -70.7930   16.8030   -9.0320 S.3   256  MET256     -0.1393
     50  CE       -69.0270   16.5120   -9.1500 C.3   256  MET256      0.0692
     51  N        -70.0010   18.6950   -4.6220 N.am  257  GLY257     -0.1940
     52  CA       -69.4920   18.8400   -3.2660 C.3   257  GLY257      0.2014
     53  C        -68.8940   20.2130   -3.0200 C.2   257  GLY257      0.2639
     54  O        -69.3170   20.9250   -2.1120 O.2   257  GLY257     -0.2714
     55  N        -67.8810   20.5780   -3.8060 N.am  258  ALA258     -0.1963
     56  CA       -67.2040   21.8670   -3.6620 C.3   258  ALA258      0.1728
     57  C        -66.3820   22.0840   -4.9130 C.2   258  ALA258      0.2616
     58  O        -66.1770   21.1470   -5.7010 O.2   258  ALA258     -0.2715
     59  CB       -66.3230   21.8850   -2.3980 C.3   258  ALA258      0.0334
     60  N        -65.9030   23.3130   -5.0840 N.am  259  MET259     -0.1963
     61  CA       -65.2410   23.7440   -6.3000 C.3   259  MET259      0.1736
     62  C        -64.0190   24.5980   -5.9880 C.2   259  MET259      0.2616
     63  O        -64.0870   25.5850   -5.2290 O.2   259  MET259     -0.2715
     64  CB       -66.2110   24.5130   -7.1950 C.3   259  MET259      0.0427
     65  CG       -65.5910   25.0170   -8.5010 C.3   259  MET259      0.0599
     66  SD       -65.0410   23.6320   -9.5420 S.3   259  MET259     -0.1393
     67  CE       -63.6280   24.3990  -10.3180 C.3   259  MET259      0.0692
     68  N        -62.9150   24.2210   -6.6320 N.am  260  GLU260     -0.1977
     69  CA       -61.5880   24.8020   -6.3660 C.3   260  GLU260      0.1602
     70  C        -61.2690   26.1580   -7.0440 C.2   260  GLU260      0.2287
     71  O        -60.0810   26.4460   -7.3380 O.2   260  GLU260     -0.2864
     72  CB       -60.4840   23.7800   -6.6890 C.3   260  GLU260      0.0415
     73  CG       -60.3080   23.4950   -8.1930 C.3   260  GLU260      0.1163
     74  CD       -61.1650   22.3510   -8.7310 C.2   260  GLU260      0.3649
     75  OE1      -62.2480   22.0400   -8.1670 O.co2 260  GLU260     -0.2457
     76  OE2      -60.7640   21.7860   -9.7730 O.co2 260  GLU260     -0.2457
     77  N        -59.2690   18.5330   -0.0700 N.3   293  HIS293     -0.1226
     78  CA       -59.3550   18.2830   -1.5080 C.3   293  HIS293      0.1752
     79  C        -59.3180   19.5970   -2.3280 C.2   293  HIS293      0.2595
     80  O        -58.4860   19.7630   -3.2460 O.2   293  HIS293     -0.2718
     81  CB       -60.6260   17.4910   -1.8350 C.3   293  HIS293      0.0759
     82  CG       -60.7380   17.0920   -3.2760 C.ar  293  HIS293      0.0818
     83  ND1      -60.3980   15.8370   -3.7330 N.ar  293  HIS293     -0.2268
     84  CD2      -61.1640   17.7840   -4.3640 C.ar  293  HIS293      0.1154
     85  CE1      -60.5900   15.7770   -5.0380 C.ar  293  HIS293      0.1986
     86  NE2      -61.0720   16.9400   -5.4480 N.ar  293  HIS293     -0.2212
     87  N        -60.2130   20.5380   -2.0160 N.am  294  GLU294     -0.1979
     88  CA       -60.2410   21.8130   -2.7600 C.3   294  GLU294      0.1602
     89  C        -58.9360   22.6030   -2.6150 C.2   294  GLU294      0.2287
     90  O        -58.4310   23.1570   -3.5990 O.2   294  GLU294     -0.2864
     91  CB       -61.4660   22.6440   -2.3960 C.3   294  GLU294      0.0415
     92  CG       -62.8050   21.8850   -2.4690 C.3   294  GLU294      0.1163
     93  CD       -63.0320   21.0980   -3.7650 C.2   294  GLU294      0.3649
     94  OE1      -62.5880   21.5100   -4.8580 O.co2 294  GLU294     -0.2457
     95  OE2      -63.7240   20.0540   -3.6900 O.co2 294  GLU294     -0.2457
     96  N        -56.1430   21.1610   -4.7850 N.3   297  HIS297     -0.1241
     97  CA       -56.2930   21.5330   -6.1890 C.3   297  HIS297      0.1621
     98  C        -55.5010   22.7980   -6.5220 C.2   297  HIS297      0.2264
     99  O        -55.2140   23.0480   -7.6960 O.2   297  HIS297     -0.2867
    100  CB       -57.7750   21.7680   -6.5580 C.3   297  HIS297      0.0745
    101  CG       -58.5010   20.5540   -7.0960 C.ar  297  HIS297      0.0817
    102  ND1      -57.9940   19.7480   -8.1000 N.ar  297  HIS297     -0.2268
    103  CD2      -59.7250   20.0400   -6.7930 C.ar  297  HIS297      0.1154
    104  CE1      -58.8650   18.7830   -8.3710 C.ar  297  HIS297      0.1986
    105  NE2      -59.9230   18.9390   -7.5930 N.ar  297  HIS297     -0.2212
    106  N        -56.0400   15.9620  -12.7550 N.3   315  LYS315     -0.1231
    107  CA       -56.2700   16.6980  -11.5170 C.3   315  LYS315      0.1693
    108  C        -57.0950   15.9000  -10.4930 C.2   315  LYS315      0.2591
    109  O        -56.8150   15.9970   -9.3070 O.2   315  LYS315     -0.2718
    110  CB       -56.8490   18.1160  -11.7520 C.3   315  LYS315      0.0285
    111  CG       -58.2890   18.2220  -12.2620 C.3   315  LYS315      0.0035
    112  CD       -58.6370   19.7080  -12.4750 C.3   315  LYS315      0.0206
    113  CE       -60.0840   19.9620  -12.9400 C.3   315  LYS315      0.1093
    114  NZ       -61.1260   19.8020  -11.8750 N.3   315  LYS315     -0.1314
    115  N        -58.1000   15.1360  -10.9200 N.am  316  GLU316     -0.1979
    116  CA       -58.9510   14.4480   -9.9460 C.3   316  GLU316      0.1602
    117  C        -58.3220   13.2380   -9.2830 C.2   316  GLU316      0.2287
    118  O        -58.4220   13.1300   -8.0670 O.2   316  GLU316     -0.2864
    119  CB       -60.3320   14.1450  -10.5140 C.3   316  GLU316      0.0415
    120  CG       -61.0910   15.3960  -10.9410 C.3   316  GLU316      0.1163
    121  CD       -61.2040   16.4690   -9.8380 C.2   316  GLU316      0.3649
    122  OE1      -61.0470   16.1890   -8.6020 O.co2 316  GLU316     -0.2457
    123  OE2      -61.4520   17.6410  -10.1920 O.co2 316  GLU316     -0.2457
    124  N        -70.2800   16.6190  -17.9500 N.3   369  ASN369     -0.1240
    125  CA       -70.7780   16.5110  -16.5860 C.3   369  ASN369      0.1653
    126  C        -71.1000   15.0710  -16.1610 C.2   369  ASN369      0.2266
    127  O        -71.1890   14.7960  -14.9710 O.2   369  ASN369     -0.2867
    128  CB       -71.9760   17.4440  -16.3400 C.3   369  ASN369      0.1155
    129  CG       -71.5860   18.9240  -16.3250 C.2   369  ASN369      0.2627
    130  OD1      -70.4540   19.2950  -15.9840 O.2   369  ASN369     -0.2716
    131  ND2      -72.5420   19.7780  -16.6870 N.am  369  ASN369     -0.0877
    132  N        -67.7340   12.9920  -14.1010 N.3   372  TYR372     -0.1241
    133  CA       -67.2410   13.2640  -12.7580 C.3   372  TYR372      0.1605
    134  C        -67.5730   12.0330  -11.9170 C.2   372  TYR372      0.2264
    135  O        -68.5080   12.0330  -11.1160 O.2   372  TYR372     -0.2867
    136  CB       -67.8090   14.6090  -12.2370 C.3   372  TYR372      0.0534
    137  CG       -67.0950   15.7580  -12.9230 C.ar  372  TYR372     -0.0201
    138  CD1      -67.4390   16.1360  -14.2200 C.ar  372  TYR372     -0.0009
    139  CD2      -66.0090   16.3940  -12.3190 C.ar  372  TYR372     -0.0009
    140  CE1      -66.7530   17.1650  -14.8820 C.ar  372  TYR372      0.0417
    141  CE2      -65.3050   17.4270  -12.9680 C.ar  372  TYR372      0.0417
    142  CZ       -65.6950   17.7960  -14.2510 C.ar  372  TYR372      0.1957
    143  OH       -65.0320   18.7810  -14.9350 O.3   372  TYR372     -0.2866
    144  N        -62.2730    9.6710  -10.4050 N.3   377  TYR377     -0.1241
    145  CA       -61.8350   10.0930   -9.0800 C.3   377  TYR377      0.1605
    146  C        -61.1780    8.9530   -8.2970 C.2   377  TYR377      0.2264
    147  O        -59.9860    8.9910   -8.0040 O.2   377  TYR377     -0.2867
    148  CB       -63.0220   10.6560   -8.2790 C.3   377  TYR377      0.0534
    149  CG       -63.3930   12.0800   -8.6180 C.ar  377  TYR377     -0.0201
    150  CD1      -63.8580   12.4280   -9.8870 C.ar  377  TYR377     -0.0009
    151  CD2      -63.2520   13.1000   -7.6600 C.ar  377  TYR377     -0.0009
    152  CE1      -64.1870   13.7660  -10.1780 C.ar  377  TYR377      0.0417
    153  CE2      -63.5820   14.4280   -7.9450 C.ar  377  TYR377      0.0417
    154  CZ       -64.0430   14.7500   -9.1990 C.ar  377  TYR377      0.1957
    155  OH       -64.3290   16.0600   -9.4860 O.3   377  TYR377     -0.2866
    156  N        -78.1840   17.7400  -14.4510 N.3   817  GLN817     -0.1245
    157  CA       -77.0370   17.1560  -13.7500 C.3   817  GLN817      0.1566
    158  C        -77.4780   16.2750  -12.5840 C.2   817  GLN817      0.2260
    159  O        -76.9680   15.1680  -12.4050 O.2   817  GLN817     -0.2867
    160  CB       -76.0810   18.2440  -13.2730 C.3   817  GLN817      0.0367
    161  CG       -75.2370   18.8250  -14.3790 C.3   817  GLN817      0.0905
    162  CD       -74.1820   19.7620  -13.8480 C.2   817  GLN817      0.2608
    163  OE1      -73.1110   19.3310  -13.4030 O.2   817  GLN817     -0.2717
    164  NE2      -74.4780   21.0500  -13.8820 N.am  817  GLN817     -0.0878
@<TRIPOS>BOND
     1    22    21    2
     2   124   125    1
     3    21    20    1
     4    23    20    1
     5    20    19    1
     6   131   129   am
     7   125   128    1
     8   125   126    1
     9   128   129    1
    10   129   130    2
    11   126   127    2
    12    19    12   am
    13   143   142    1
    14   140   142   ar
    15   140   138   ar
    16    12    11    1
    17    12    13    2
    18   156   157    1
    19   161   162    1
    20   161   160    1
    21   142   141   ar
    22    11    10    1
    23    11    14    1
    24   138   137   ar
    25   132   133    1
    26   164   162   am
    27   162   163    2
    28    15    14    1
    29    15    16    1
    30   157   160    1
    31   157   158    1
    32     4     3    2
    33    18    16   ar
    34   141   139   ar
    35   113   112    1
    36   113   114    1
    37   137   139   ar
    38   137   136    1
    39    16    17   ar
    40   133   136    1
    41   133   134    1
    42   106   107    1
    43     3     2    1
    44   158   159    2
    45   112   111    1
    46   111   110    1
    47   134   135    2
    48   110   107    1
    49   107   108    1
    50     2     1    1
    51     2     5    1
    52     9     7   am
    53   120   119    1
    54   120   121    1
    55   115   108   am
    56   115   116    1
    57     6     5    1
    58     6     7    1
    59    42    40   am
    60   119   116    1
    61   108   109    2
    62   144   145    1
    63    67    66    1
    64     7     8    2
    65   123   121   ar
    66   152   150   ar
    67   152   154   ar
    68   116   117    1
    69   150   149   ar
    70   121   122   ar
    71    76    74   ar
    72    40    41    2
    73    40    39    1
    74    66    65    1
    75   155   154    1
    76   117   118    2
    77   154   153   ar
    78    50    49    1
    79   145   146    1
    80   145   148    1
    81    39    36    1
    82    49    48    1
    83    48    47    1
    84    74    73    1
    85    74    75   ar
    86   149   148    1
    87   149   151   ar
    88    65    64    1
    89   104   102   ar
    90   104   105   ar
    91   146   147    2
    92    73    72    1
    93   102   101   ar
    94   153   151   ar
    95    99    98    2
    96   105   103   ar
    97    36    37    1
    98    36    35    1
    99    47    44    1
   100    71    70    2
   101    64    61    1
   102   101   103   ar
   103   101   100    1
   104    37    38    2
   105    37    43   am
   106    70    69    1
   107    35    26   am
   108    43    44    1
   109    72    69    1
   110    68    69    1
   111    68    62   am
   112   100    97    1
   113    98    97    1
   114    44    45    1
   115    61    62    1
   116    61    60    1
   117    32    34   ar
   118    32    30   ar
   119    34    33   ar
   120    97    96    1
   121    62    63    2
   122    26    25    1
   123    26    27    2
   124    58    57    2
   125    30    29   ar
   126    33    31   ar
   127    86    85   ar
   128    86    84   ar
   129    25    24    1
   130    25    28    1
   131    60    57   am
   132    85    83   ar
   133    29    31   ar
   134    29    28    1
   135    45    51   am
   136    45    46    2
   137    57    56    1
   138    94    93   ar
   139    51    52    1
   140    84    82   ar
   141    55    56    1
   142    55    53   am
   143    93    95   ar
   144    93    92    1
   145    83    82   ar
   146    56    59    1
   147    90    89    2
   148    82    81    1
   149    52    53    1
   150    80    79    2
   151    53    54    2
   152    88    89    1
   153    88    91    1
   154    88    87    1
   155    92    91    1
   156    79    87   am
   157    79    78    1
   158    81    78    1
   159    78    77    1
