@<TRIPOS>MOLECULE
tmp/3b3bA00.pdb
 155 149 0 0 0
SMALL
GASTEIGER

@<TRIPOS>ATOM
      1  N        -60.2150   47.1160   11.0180 N.3   115  GLN115     -0.1245
      2  CA       -58.7660   47.1450   11.1760 C.3   115  GLN115      0.1566
      3  C        -58.4510   46.8750   12.6540 C.2   115  GLN115      0.2260
      4  O        -58.8050   47.6940   13.5180 O.2   115  GLN115     -0.2867
      5  CB       -58.1740   48.4810   10.7280 C.3   115  GLN115      0.0367
      6  CG       -56.6630   48.6110   11.0280 C.3   115  GLN115      0.0905
      7  CD       -55.8440   47.5100   10.3690 C.2   115  GLN115      0.2608
      8  OE1      -56.1610   47.0640    9.2540 O.2   115  GLN115     -0.2717
      9  NE2      -54.7830   47.0660   11.0500 N.am  115  GLN115     -0.0878
     10  N        -55.1220   45.4680   13.8550 N.3   117  GLU117     -0.1245
     11  CA       -53.7400   45.7370   14.3180 C.3   117  GLU117      0.1567
     12  C        -53.5720   47.2240   14.6670 C.2   117  GLU117      0.2260
     13  O        -54.1210   48.0630   13.9510 O.2   117  GLU117     -0.2867
     14  CB       -52.7110   45.3320   13.2670 C.3   117  GLU117      0.0388
     15  CG       -51.3010   45.2580   13.8850 C.3   117  GLU117      0.1160
     16  CD       -50.2150   44.8640   12.9110 C.2   117  GLU117      0.3649
     17  OE1      -50.5310   44.5650   11.7430 O.co2 117  GLU117     -0.2457
     18  OE2      -49.0410   44.8300   13.3420 O.co2 117  GLU117     -0.2457
     19  N        -58.6470   54.0410    4.7210 N.3   254  PHE254     -0.1227
     20  CA       -57.6830   53.1470    5.3920 C.3   254  PHE254      0.1736
     21  C        -56.4690   53.9650    5.8100 C.2   254  PHE254      0.2595
     22  O        -55.9140   54.7140    5.0010 O.2   254  PHE254     -0.2718
     23  CB       -57.2580   52.0190    4.4270 C.3   254  PHE254      0.0547
     24  CG       -56.6520   50.8130    5.1020 C.ar  254  PHE254     -0.0202
     25  CD1      -57.4680   49.8850    5.7580 C.ar  254  PHE254     -0.0042
     26  CD2      -55.2660   50.5880    5.0580 C.ar  254  PHE254     -0.0042
     27  CE1      -56.9130   48.7530    6.3730 C.ar  254  PHE254     -0.0003
     28  CE2      -54.6960   49.4500    5.6720 C.ar  254  PHE254     -0.0003
     29  CZ       -55.5380   48.5260    6.3260 C.ar  254  PHE254     -0.0000
     30  N        -56.0580   53.8240    7.0680 N.am  255  ASN255     -0.1960
     31  CA       -54.9780   54.6520    7.6270 C.3   255  ASN255      0.1819
     32  C        -53.5820   54.3040    7.1470 C.2   255  ASN255      0.2621
     33  O        -52.6850   55.1660    7.1240 O.2   255  ASN255     -0.2715
     34  CB       -55.0020   54.6110    9.1590 C.3   255  ASN255      0.1195
     35  CG       -56.1270   55.4290    9.7360 C.2   255  ASN255      0.2630
     36  OD1      -56.6730   56.3110    9.0630 O.2   255  ASN255     -0.2716
     37  ND2      -56.4750   55.1640   10.9860 N.am  255  ASN255     -0.0877
     38  N        -53.3790   53.0430    6.8070 N.am  256  MET256     -0.1977
     39  CA       -52.0600   52.5880    6.3850 C.3   256  MET256      0.1605
     40  C        -52.0800   52.0740    4.9480 C.2   256  MET256      0.2287
     41  O        -52.8390   52.5770    4.1220 O.2   256  MET256     -0.2864
     42  CB       -51.5490   51.5210    7.3630 C.3   256  MET256      0.0413
     43  CG       -51.5100   52.0220    8.7930 C.3   256  MET256      0.0598
     44  SD       -49.9900   52.9460    9.0730 S.3   256  MET256     -0.1393
     45  CE       -48.8130   51.5780    9.1770 C.3   256  MET256      0.0692
     46  N        -51.7780   48.3440    3.9140 N.3   258  ALA258     -0.1231
     47  CA       -52.5870   47.1370    3.7600 C.3   258  ALA258      0.1694
     48  C        -52.3760   46.2750    4.9920 C.2   258  ALA258      0.2592
     49  O        -51.4510   46.5370    5.7850 O.2   258  ALA258     -0.2718
     50  CB       -52.1840   46.3880    2.4700 C.3   258  ALA258      0.0304
     51  N        -53.2110   45.2450    5.1490 N.am  259  MET259     -0.1965
     52  CA       -53.2280   44.4850    6.3930 C.3   259  MET259      0.1736
     53  C        -53.3360   42.9790    6.1050 C.2   259  MET259      0.2616
     54  O        -54.2240   42.5450    5.3600 O.2   259  MET259     -0.2715
     55  CB       -54.3810   44.9580    7.2920 C.3   259  MET259      0.0427
     56  CG       -54.4740   44.1660    8.6130 C.3   259  MET259      0.0599
     57  SD       -53.0050   44.4320    9.6380 S.3   259  MET259     -0.1393
     58  CE       -52.9120   42.8090   10.4430 C.3   259  MET259      0.0692
     59  N        -52.4540   42.2030    6.7330 N.am  260  GLU260     -0.1977
     60  CA       -52.2920   40.7820    6.4440 C.3   260  GLU260      0.1602
     61  C        -53.2940   39.8390    7.1660 C.2   260  GLU260      0.2287
     62  O        -52.9480   38.6920    7.4760 O.2   260  GLU260     -0.2864
     63  CB       -50.8470   40.3650    6.7780 C.3   260  GLU260      0.0415
     64  CG       -50.5240   40.3220    8.3240 C.3   260  GLU260      0.1163
     65  CD       -49.9170   41.6460    8.8720 C.2   260  GLU260      0.3649
     66  OE1      -50.1510   42.7240    8.2730 O.co2 260  GLU260     -0.2457
     67  OE2      -49.2230   41.5860    9.9140 O.co2 260  GLU260     -0.2457
     68  N        -45.7960   41.9570    0.1590 N.3   293  HIS293     -0.1226
     69  CA       -45.6110   42.1570    1.6150 C.3   293  HIS293      0.1752
     70  C        -46.6990   41.4500    2.4380 C.2   293  HIS293      0.2595
     71  O        -46.3830   40.6770    3.3430 O.2   293  HIS293     -0.2718
     72  CB       -45.5760   43.6660    1.9500 C.3   293  HIS293      0.0759
     73  CG       -45.2870   43.9740    3.3960 C.ar  293  HIS293      0.0818
     74  ND1      -44.0240   44.3060    3.8520 N.ar  293  HIS293     -0.2268
     75  CD2      -46.1020   44.0270    4.4760 C.ar  293  HIS293      0.1154
     76  CE1      -44.0740   44.5240    5.1570 C.ar  293  HIS293      0.1986
     77  NE2      -45.3250   44.3660    5.5600 N.ar  293  HIS293     -0.2212
     78  N        -47.9710   41.7110    2.1230 N.am  294  GLU294     -0.1979
     79  CA       -49.0620   41.1370    2.9330 C.3   294  GLU294      0.1602
     80  C        -49.0830   39.6230    2.7700 C.2   294  GLU294      0.2287
     81  O        -49.3160   38.8950    3.7430 O.2   294  GLU294     -0.2864
     82  CB       -50.4270   41.7680    2.6000 C.3   294  GLU294      0.0415
     83  CG       -50.4530   43.3310    2.6320 C.3   294  GLU294      0.1163
     84  CD       -49.8420   43.9550    3.8900 C.2   294  GLU294      0.3649
     85  OE1      -49.9620   43.3700    4.9820 O.co2 294  GLU294     -0.2457
     86  OE2      -49.2650   45.0530    3.7680 O.co2 294  GLU294     -0.2457
     87  N        -46.3820   37.9630    4.9120 N.3   297  HIS297     -0.1241
     88  CA       -46.7980   37.8930    6.3160 C.3   297  HIS297      0.1621
     89  C        -47.5120   36.5850    6.6570 C.2   297  HIS297      0.2264
     90  O        -47.5680   36.1930    7.8340 O.2   297  HIS297     -0.2867
     91  CB       -47.7430   39.0400    6.6690 C.3   297  HIS297      0.0745
     92  CG       -47.0610   40.2750    7.1850 C.ar  297  HIS297      0.0817
     93  ND1      -46.1270   40.2500    8.2070 N.ar  297  HIS297     -0.2268
     94  CD2      -47.2300   41.5810    6.8570 C.ar  297  HIS297      0.1154
     95  CE1      -45.7420   41.4880    8.4770 C.ar  297  HIS297      0.1986
     96  NE2      -46.3970   42.3150    7.6730 N.ar  297  HIS297     -0.2212
     97  N        -41.8000   40.4800   12.7910 N.3   315  LYS315     -0.1231
     98  CA       -42.5530   40.3060   11.5540 C.3   315  LYS315      0.1693
     99  C        -42.3070   41.4300   10.5380 C.2   315  LYS315      0.2591
    100  O        -42.2580   41.1540    9.3560 O.2   315  LYS315     -0.2718
    101  CB       -44.0700   40.0870   11.7990 C.3   315  LYS315      0.0285
    102  CG       -44.9060   41.3150   12.3180 C.3   315  LYS315      0.0035
    103  CD       -46.3860   40.8610   12.5210 C.3   315  LYS315      0.0206
    104  CE       -47.3270   41.9820   12.9810 C.3   315  LYS315      0.1093
    105  NZ       -47.7080   42.9420   11.8780 N.3   315  LYS315     -0.1314
    106  N        -42.1510   42.6840   10.9800 N.am  316  GLU316     -0.1979
    107  CA       -42.0420   43.7690   10.0020 C.3   316  GLU316      0.1602
    108  C        -40.6790   43.8600    9.3360 C.2   316  GLU316      0.2287
    109  O        -40.6240   44.0230    8.1140 O.2   316  GLU316     -0.2864
    110  CB       -42.4660   45.1310   10.5690 C.3   316  GLU316      0.0415
    111  CG       -43.9260   45.1640   11.0020 C.3   316  GLU316      0.1163
    112  CD       -44.8910   44.6900    9.9050 C.2   316  GLU316      0.3649
    113  OE1      -44.5470   44.7060    8.6850 O.co2 316  GLU316     -0.2457
    114  OE2      -46.0300   44.3100   10.2660 O.co2 316  GLU316     -0.2457
    115  N        -49.4480   52.3730   18.0830 N.3   369  ASN369     -0.1240
    116  CA       -49.5930   52.7980   16.6890 C.3   369  ASN369      0.1653
    117  C        -48.5080   53.7850   16.2440 C.2   369  ASN369      0.2266
    118  O        -48.2670   53.9540   15.0470 O.2   369  ASN369     -0.2867
    119  CB       -50.9930   53.3440   16.4090 C.3   369  ASN369      0.1155
    120  CG       -52.0460   52.2320   16.3230 C.2   369  ASN369      0.2627
    121  OD1      -51.7240   51.0600   16.0790 O.2   369  ASN369     -0.2716
    122  ND2      -53.3110   52.6000   16.5430 N.am  369  ASN369     -0.0877
    123  N        -45.0530   51.9610   14.2020 N.3   372  TYR372     -0.1241
    124  CA       -45.0370   51.3730   12.8680 C.3   372  TYR372      0.1605
    125  C        -44.1760   52.2840   11.9880 C.2   372  TYR372      0.2264
    126  O        -44.6820   53.0850   11.1840 O.2   372  TYR372     -0.2867
    127  CB       -46.4730   51.2010   12.3650 C.3   372  TYR372      0.0534
    128  CG       -47.1080   50.0360   13.0730 C.ar  372  TYR372     -0.0201
    129  CD1      -47.5340   50.1480   14.4130 C.ar  372  TYR372     -0.0009
    130  CD2      -47.1850   48.7910   12.4520 C.ar  372  TYR372     -0.0009
    131  CE1      -48.0580   49.0410   15.0880 C.ar  372  TYR372      0.0417
    132  CE2      -47.7220   47.6830   13.1160 C.ar  372  TYR372      0.0417
    133  CZ       -48.1660   47.8260   14.4210 C.ar  372  TYR372      0.1957
    134  OH       -48.6730   46.7520   15.0790 O.3   372  TYR372     -0.2866
    135  N        -39.5950   48.9880   10.4780 N.3   377  TYR377     -0.1241
    136  CA       -39.7240   48.3940    9.1380 C.3   377  TYR377      0.1605
    137  C        -38.4120   48.4000    8.3600 C.2   377  TYR377      0.2264
    138  O        -37.8410   47.3310    8.0830 O.2   377  TYR377     -0.2867
    139  CB       -40.7800   49.1510    8.3210 C.3   377  TYR377      0.0534
    140  CG       -42.2030   48.7970    8.6520 C.ar  377  TYR377     -0.0201
    141  CD1      -42.7370   49.0360    9.9310 C.ar  377  TYR377     -0.0009
    142  CD2      -43.0320   48.2070    7.6820 C.ar  377  TYR377     -0.0009
    143  CE1      -44.0760   48.6940   10.2260 C.ar  377  TYR377      0.0417
    144  CE2      -44.3610   47.8810    7.9650 C.ar  377  TYR377      0.0417
    145  CZ       -44.8790   48.1240    9.2160 C.ar  377  TYR377      0.1957
    146  OH       -46.1960   47.7540    9.4610 O.3   377  TYR377     -0.2866
    147  N        -54.3750   58.6060   14.5350 N.3   817  GLN817     -0.1245
    148  CA       -53.2850   57.9080   13.8380 C.3   817  GLN817      0.1566
    149  C        -52.7360   58.7380   12.6840 C.2   817  GLN817      0.2260
    150  O        -51.5120   58.8600   12.5110 O.2   817  GLN817     -0.2867
    151  CB       -53.7540   56.5550   13.3060 C.3   817  GLN817      0.0367
    152  CG       -53.4830   55.4230   14.2390 C.3   817  GLN817      0.0905
    153  CD       -53.8540   54.1060   13.6120 C.2   817  GLN817      0.2608
    154  OE1      -53.0070   53.4180   13.0240 O.2   817  GLN817     -0.2717
    155  NE2      -55.1260   53.7630   13.6930 N.am  817  GLN817     -0.0878
@<TRIPOS>BOND
     1    68    69    1
     2    69    72    1
     3    69    70    1
     4    72    73    1
     5    78    70   am
     6    78    79    1
     7    70    71    2
     8    50    47    1
     9    82    83    1
    10    82    79    1
    11    83    84    1
    12    80    79    1
    13    80    81    2
    14    73    74   ar
    15    73    75   ar
    16    47    46    1
    17    47    48    1
    18    86    84   ar
    19    74    76   ar
    20    84    85   ar
    21    41    40    2
    22    23    24    1
    23    23    20    1
    24    75    77   ar
    25    19    20    1
    26    87    88    1
    27    40    39    1
    28    48    51   am
    29    48    49    2
    30    22    21    2
    31    26    24   ar
    32    26    28   ar
    33    24    25   ar
    34    51    52    1
    35    76    77   ar
    36    54    53    2
    37    20    21    1
    38    28    29   ar
    39    25    27   ar
    40    21    30   am
    41    53    52    1
    42    53    59   am
    43    88    89    1
    44    88    91    1
    45    29    27   ar
    46    39    38    1
    47    39    42    1
    48    52    55    1
    49    60    59    1
    50    60    63    1
    51    60    61    1
    52    89    90    2
    53    91    92    1
    54    63    64    1
    55    38    32   am
    56    94    92   ar
    57    94    96   ar
    58    30    31    1
    59    33    32    2
    60    32    31    1
    61    61    62    2
    62    92    93   ar
    63    55    56    1
    64    42    43    1
    65    31    34    1
    66    96    95   ar
    67   142   144   ar
    68   142   140   ar
    69   144   145   ar
    70   138   137    2
    71   109   108    2
    72    93    95   ar
    73    66    65   ar
    74   139   140    1
    75   139   136    1
    76    64    65    1
    77   137   136    1
    78    56    57    1
    79   140   141   ar
    80   113   112   ar
    81    43    44    1
    82    65    67   ar
    83    36    35    2
    84    44    45    1
    85   136   135    1
    86    34    35    1
    87   145   146    1
    88   145   143   ar
    89     8     7    2
    90   108   107    1
    91   100    99    2
    92    57    58    1
    93    35    37   am
    94   112   114   ar
    95   112   111    1
    96   141   143   ar
    97   107   110    1
    98   107   106    1
    99     7     6    1
   100     7     9   am
   101    99   106   am
   102    99    98    1
   103   110   111    1
   104     5     6    1
   105     5     2    1
   106     1     2    1
   107     2     3    1
   108   126   125    2
   109    98   101    1
   110    98    97    1
   111    17    16   ar
   112   101   102    1
   113   105   104    1
   114   125   124    1
   115   102   103    1
   116   127   124    1
   117   127   128    1
   118   130   128   ar
   119   130   132   ar
   120   150   149    2
   121   103   104    1
   122     3     4    2
   123   149   148    1
   124   124   123    1
   125    16    18   ar
   126    16    15    1
   127   154   153    2
   128   128   129   ar
   129   132   133   ar
   130    14    15    1
   131    14    11    1
   132   151   148    1
   133   151   152    1
   134   153   155   am
   135   153   152    1
   136   148   147    1
   137    10    11    1
   138    13    12    2
   139    11    12    1
   140   129   131   ar
   141   133   134    1
   142   133   131   ar
   143   118   117    2
   144   121   120    2
   145   117   116    1
   146   120   119    1
   147   120   122   am
   148   119   116    1
   149   116   115    1
