@<TRIPOS>MOLECULE
tmp/3b3jA03.pdb
 124 123 0 0 0
SMALL
GASTEIGER

@<TRIPOS>ATOM
      1  N         44.7010    6.2340   63.9930 N.3     7  PHE7       -0.1227
      2  CA        44.3780    6.9030   62.7320 C.3     7  PHE7        0.1736
      3  C         44.9690    6.1490   61.5240 C.2     7  PHE7        0.2595
      4  O         44.2880    5.9460   60.5180 O.2     7  PHE7       -0.2718
      5  CB        44.8490    8.3530   62.7790 C.3     7  PHE7        0.0547
      6  CG        44.6090    9.1030   61.5110 C.ar    7  PHE7       -0.0202
      7  CD1       43.3390    9.6200   61.2160 C.ar    7  PHE7       -0.0042
      8  CD2       45.6400    9.3000   60.6030 C.ar    7  PHE7       -0.0042
      9  CE1       43.0920   10.3020   60.0270 C.ar    7  PHE7       -0.0003
     10  CE2       45.4100    9.9910   59.4220 C.ar    7  PHE7       -0.0003
     11  CZ        44.1300   10.4950   59.1310 C.ar    7  PHE7       -0.0000
     12  N         46.2090    5.6850   61.6370 N.am    8  TYR8       -0.1976
     13  CA        46.8560    4.9940   60.5010 C.3     8  TYR8        0.1639
     14  C         46.3550    3.5850   60.1740 C.2     8  TYR8        0.2290
     15  O         46.5730    3.0750   59.0800 O.2     8  TYR8       -0.2864
     16  CB        48.3710    5.0380   60.6290 C.3     8  TYR8        0.0560
     17  CG        48.9090    6.4410   60.4090 C.ar    8  TYR8       -0.0198
     18  CD1       48.7640    7.0650   59.1720 C.ar    8  TYR8       -0.0009
     19  CD2       49.5420    7.1420   61.4300 C.ar    8  TYR8       -0.0009
     20  CE1       49.2350    8.3320   58.9490 C.ar    8  TYR8        0.0417
     21  CE2       50.0350    8.4250   61.2220 C.ar    8  TYR8        0.0417
     22  CZ        49.8810    9.0130   59.9710 C.ar    8  TYR8        0.1957
     23  OH        50.3460   10.2990   59.7230 O.3     8  TYR8       -0.2866
     24  N         42.6450   11.2340   45.8180 N.3    23  ARG23      -0.1245
     25  CA        43.7400   12.1810   45.9520 C.3    23  ARG23       0.1563
     26  C         44.6480   12.2890   44.7430 C.2    23  ARG23       0.2260
     27  O         44.9730   13.3840   44.3180 O.2    23  ARG23      -0.2867
     28  CB        44.5220   11.8930   47.2390 C.3    23  ARG23       0.0307
     29  CG        43.6320   12.2210   48.4250 C.3    23  ARG23       0.0489
     30  CD        44.0940   11.6560   49.7080 C.3    23  ARG23       0.2205
     31  NE        43.1730   12.0900   50.7590 N.pl3  23  ARG23      -0.0865
     32  CZ        43.4980   12.1510   52.0460 C.cat  23  ARG23       0.5346
     33  NH1       44.7290   11.8170   52.4410 N.pl3  23  ARG23       0.1354
     34  NH2       42.5960   12.5520   52.9320 N.pl3  23  ARG23       0.1354
     35  N         50.3630   12.2050   53.2770 N.3   115  GLY115     -0.1225
     36  CA        50.7610   12.3870   54.6820 C.3   115  GLY115      0.1811
     37  C         52.1960   11.9620   54.9710 C.2   115  GLY115      0.2280
     38  O         52.9570   12.7090   55.5990 O.2   115  GLY115     -0.2866
     39  N         55.0490   14.4480   56.9220 N.3   119  PHE119     -0.1241
     40  CA        55.4230   14.2970   58.3160 C.3   119  PHE119      0.1605
     41  C         56.6870   13.4630   58.5740 C.2   119  PHE119      0.2264
     42  O         56.9770   13.1030   59.7050 O.2   119  PHE119     -0.2867
     43  CB        54.1970   13.8390   59.0970 C.3   119  PHE119      0.0534
     44  CG        53.0450   14.8080   58.9800 C.ar  119  PHE119     -0.0203
     45  CD1       52.2170   14.7960   57.8510 C.ar  119  PHE119     -0.0042
     46  CD2       52.8290   15.7730   59.9660 C.ar  119  PHE119     -0.0042
     47  CE1       51.1690   15.7190   57.7070 C.ar  119  PHE119     -0.0003
     48  CE2       51.7840   16.6940   59.8480 C.ar  119  PHE119     -0.0003
     49  CZ        50.9470   16.6630   58.7070 C.ar  119  PHE119     -0.0000
     50  N         42.5880   13.1950   65.8350 N.3   195  VAL195     -0.1245
     51  CA        42.0390   13.5290   64.5130 C.3   195  VAL195      0.1561
     52  C         40.5750   13.2930   64.6180 C.2   195  VAL195      0.2260
     53  O         40.1510   12.2630   65.1480 O.2   195  VAL195     -0.2867
     54  CB        42.6000   12.6200   63.3590 C.3   195  VAL195      0.0252
     55  CG1       41.9220   12.9410   62.0140 C.3   195  VAL195      0.0019
     56  CG2       44.1020   12.7710   63.2370 C.3   195  VAL195      0.0019
     57  N         47.1070   21.3200   57.7540 N.3   246  PHE246     -0.1241
     58  CA        48.2840   21.3280   56.8830 C.3   246  PHE246      0.1605
     59  C         47.8300   21.2690   55.4230 C.2   246  PHE246      0.2264
     60  O         46.9350   20.4810   55.0610 O.2   246  PHE246     -0.2867
     61  CB        49.1900   20.1220   57.1930 C.3   246  PHE246      0.0534
     62  CG        49.5960   20.0320   58.6380 C.ar  246  PHE246     -0.0203
     63  CD1       48.7860   19.3640   59.5660 C.ar  246  PHE246     -0.0042
     64  CD2       50.7670   20.6520   59.0910 C.ar  246  PHE246     -0.0042
     65  CE1       49.1430   19.3040   60.9170 C.ar  246  PHE246     -0.0003
     66  CE2       51.1350   20.5940   60.4530 C.ar  246  PHE246     -0.0003
     67  CZ        50.3080   19.9240   61.3710 C.ar  246  PHE246     -0.0000
     68  N         42.3180   17.5210   54.4850 N.3   270  TRP270     -0.1227
     69  CA        42.7710   16.1530   54.5810 C.3   270  TRP270      0.1737
     70  C         43.6720   15.9960   55.7950 C.2   270  TRP270      0.2595
     71  O         43.6550   14.9470   56.4250 O.2   270  TRP270     -0.2718
     72  CB        43.5620   15.7190   53.3420 C.3   270  TRP270      0.0564
     73  CG        42.8100   15.7480   52.0480 C.ar  270  TRP270      0.0003
     74  CD1       41.4520   15.8510   51.8730 C.ar  270  TRP270      0.0946
     75  CD2       43.3750   15.6280   50.7300 C.ar  270  TRP270      0.0152
     76  NE1       41.1510   15.8240   50.5360 N.ar  270  TRP270     -0.2442
     77  CE2       42.3080   15.6930   49.8120 C.ar  270  TRP270      0.0810
     78  CE3       44.6850   15.4890   50.2400 C.ar  270  TRP270      0.0012
     79  CZ2       42.5040   15.6200   48.4240 C.ar  270  TRP270      0.0191
     80  CZ3       44.8800   15.4180   48.8590 C.ar  270  TRP270      0.0001
     81  CH2       43.7950   15.4970   47.9680 C.ar  270  TRP270      0.0015
     82  N         44.4700   17.0280   56.0940 N.am  271  TYR271     -0.1962
     83  CA        45.4990   16.9230   57.1230 C.3   271  TYR271      0.1771
     84  C         45.2450   17.8890   58.2770 C.2   271  TYR271      0.2619
     85  O         45.6450   19.0610   58.2260 O.2   271  TYR271     -0.2715
     86  CB        46.8870   17.1350   56.5280 C.3   271  TYR271      0.0574
     87  CG        47.1700   16.3480   55.2690 C.ar  271  TYR271     -0.0198
     88  CD1       47.0830   14.9490   55.2560 C.ar  271  TYR271     -0.0009
     89  CD2       47.5530   16.9970   54.0870 C.ar  271  TYR271     -0.0009
     90  CE1       47.3320   14.2160   54.0920 C.ar  271  TYR271      0.0417
     91  CE2       47.8110   16.2740   52.9160 C.ar  271  TYR271      0.0417
     92  CZ        47.7030   14.8890   52.9210 C.ar  271  TYR271      0.1957
     93  OH        47.9700   14.1700   51.7630 O.3   271  TYR271     -0.2866
     94  N         44.5740   17.3970   59.3170 N.am  272  GLN272     -0.1963
     95  CA        44.2160   18.2130   60.4900 C.3   272  GLN272      0.1733
     96  C         44.4630   17.4370   61.7810 C.2   272  GLN272      0.2616
     97  O         44.4560   16.2080   61.7660 O.2   272  GLN272     -0.2715
     98  CB        42.7430   18.6470   60.4320 C.3   272  GLN272      0.0408
     99  CG        41.7860   17.5190   60.1610 C.3   272  GLN272      0.0908
    100  CD        40.3560   17.9460   60.2650 C.2   272  GLN272      0.2608
    101  OE1       39.9040   18.3760   61.3310 O.2   272  GLN272     -0.2717
    102  NE2       39.6130   17.8320   59.1570 N.am  272  GLN272     -0.0878
    103  N         44.6330   18.1430   62.8970 N.am  273  VAL273     -0.1977
    104  CA        44.8400   17.4830   64.1660 C.3   273  VAL273      0.1596
    105  C         44.6580   18.4760   65.2980 C.2   273  VAL273      0.2287
    106  O         44.8690   19.6720   65.1050 O.2   273  VAL273     -0.2864
    107  CB        46.2300   16.7620   64.1840 C.3   273  VAL273      0.0276
    108  CG1       47.3920   17.7410   64.1860 C.3   273  VAL273      0.0022
    109  CG2       46.3330   15.7550   65.3210 C.3   273  VAL273      0.0022
    110  N         53.6270   13.0970   66.8120 N.3   324  LEU324     -0.1245
    111  CA        52.6390   12.9030   65.7430 C.3   324  LEU324      0.1561
    112  C         52.6810   11.5290   65.0660 C.2   324  LEU324      0.2260
    113  O         51.9870   11.3010   64.0750 O.2   324  LEU324     -0.2867
    114  CB        52.8170   13.9870   64.6910 C.3   324  LEU324      0.0270
    115  CG        52.6980   15.4070   65.2740 C.3   324  LEU324      0.0019
    116  CD1       53.0490   16.4630   64.2410 C.3   324  LEU324      0.0001
    117  CD2       51.2910   15.6630   65.8500 C.3   324  LEU324      0.0001
    118  N         48.6330    9.4470   65.7700 N.3   327  PRO327     -0.2116
    119  CA        47.4100   10.1290   66.1960 C.3   327  PRO327      0.1372
    120  C         46.3310    9.0900   66.4050 C.2   327  PRO327      0.2244
    121  O         46.4370    7.9760   65.8770 O.2   327  PRO327     -0.2868
    122  CB        47.0330   11.0110   64.9970 C.3   327  PRO327      0.0268
    123  CG        48.2220   11.0210   64.1270 C.3   327  PRO327      0.0207
    124  CD        49.0610    9.8310   64.4160 C.3   327  PRO327      0.0892
@<TRIPOS>BOND
     1    27    26    2
     2    26    25    1
     3    24    25    1
     4    25    28    1
     5    28    29    1
     6    81    79   ar
     7    81    80   ar
     8    79    77   ar
     9    29    30    1
    10    80    78   ar
    11    30    31    1
    12    77    76   ar
    13    77    75   ar
    14    78    75   ar
    15    76    74   ar
    16    75    73   ar
    17    31    32    2
    18    93    92    1
    19    74    73   ar
    20    32    33    1
    21    32    34    1
    22    73    72    1
    23    91    92   ar
    24    91    89   ar
    25    92    90   ar
    26    35    36    1
    27    72    69    1
    28    89    87   ar
    29    90    88   ar
    30    68    69    1
    31    69    70    1
    32    36    37    1
    33    37    38    2
    34    60    59    2
    35    88    87   ar
    36    87    86    1
    37    59    58    1
    38    70    82   am
    39    70    71    2
    40    82    83    1
    41    86    83    1
    42    58    61    1
    43    58    57    1
    44    39    40    1
    45    83    84    1
    46    61    62    1
    47    47    45   ar
    48    47    49   ar
    49    45    44   ar
    50    85    84    2
    51    84    94   am
    52    40    41    1
    53    40    43    1
    54    41    42    2
    55    62    64   ar
    56    62    63   ar
    57    49    48   ar
    58    20    18   ar
    59    20    22   ar
    60    44    43    1
    61    44    46   ar
    62    15    14    2
    63    64    66   ar
    64    11    10   ar
    65    11     9   ar
    66   102   100   am
    67    18    17   ar
    68    94    95    1
    69    10     8   ar
    70    63    65   ar
    71    23    22    1
    72    48    46   ar
    73    22    21   ar
    74     9     7   ar
    75    99   100    1
    76    99    98    1
    77    14    13    1
    78   100   101    2
    79    17    16    1
    80    17    19   ar
    81    98    95    1
    82    66    67   ar
    83    95    96    1
    84    13    16    1
    85    13    12    1
    86     4     3    2
    87     8     6   ar
    88    65    67   ar
    89     7     6   ar
    90    21    19   ar
    91     6     5    1
    92     3    12   am
    93     3     2    1
    94    97    96    2
    95    96   103   am
    96    55    54    1
    97     2     5    1
    98     2     1    1
    99   103   104    1
   100    56    54    1
   101    54    51    1
   102   113   112    2
   103   123   124    1
   104   123   122    1
   105   104   107    1
   106   104   105    1
   107   107   108    1
   108   107   109    1
   109   116   115    1
   110   124   118    1
   111    51    52    1
   112    51    50    1
   113    52    53    2
   114   114   115    1
   115   114   111    1
   116   122   119    1
   117   112   111    1
   118   106   105    2
   119   115   117    1
   120   111   110    1
   121   118   119    1
   122   121   120    2
   123   119   120    1
