@<TRIPOS>MOLECULE
tmp/3b3jA05.pdb
 126 120 0 0 0
SMALL
GASTEIGER

@<TRIPOS>ATOM
      1  N         54.7820   14.4540   54.1140 N.3   118  LEU118     -0.1231
      2  CA        54.7050   15.7040   54.8640 C.3   118  LEU118      0.1693
      3  C         55.1850   15.6190   56.3120 C.2   118  LEU118      0.2592
      4  O         55.6720   16.5990   56.8670 O.2   118  LEU118     -0.2718
      5  CB        53.2810   16.2440   54.8230 C.3   118  LEU118      0.0284
      6  CG        52.9300   17.2500   53.7270 C.3   118  LEU118      0.0019
      7  CD1       52.5460   16.5610   52.4280 C.3   118  LEU118      0.0001
      8  CD2       51.7940   18.1510   54.2310 C.3   118  LEU118      0.0001
      9  N         55.0490   14.4480   56.9220 N.am  119  PHE119     -0.1976
     10  CA        55.4230   14.2970   58.3160 C.3   119  PHE119      0.1639
     11  C         56.6870   13.4630   58.5740 C.2   119  PHE119      0.2290
     12  O         56.9770   13.1030   59.7050 O.2   119  PHE119     -0.2864
     13  CB        54.1970   13.8390   59.0970 C.3   119  PHE119      0.0560
     14  CG        53.0450   14.8080   58.9800 C.ar  119  PHE119     -0.0200
     15  CD1       52.2170   14.7960   57.8510 C.ar  119  PHE119     -0.0042
     16  CD2       52.8290   15.7730   59.9660 C.ar  119  PHE119     -0.0042
     17  CE1       51.1690   15.7190   57.7070 C.ar  119  PHE119     -0.0003
     18  CE2       51.7840   16.6940   59.8480 C.ar  119  PHE119     -0.0003
     19  CZ        50.9470   16.6630   58.7070 C.ar  119  PHE119     -0.0000
     20  N         61.2580   14.6630   53.1280 N.3   124  LEU124     -0.1245
     21  CA        61.4140   16.0850   52.8430 C.3   124  LEU124      0.1561
     22  C         62.8450   16.4300   52.4230 C.2   124  LEU124      0.2260
     23  O         63.0490   17.1290   51.4340 O.2   124  LEU124     -0.2867
     24  CB        60.9330   16.9440   54.0210 C.3   124  LEU124      0.0270
     25  CG        59.4580   16.8350   54.4300 C.3   124  LEU124      0.0019
     26  CD1       59.2070   17.5840   55.7190 C.3   124  LEU124      0.0001
     27  CD2       58.5050   17.3140   53.3260 C.3   124  LEU124      0.0001
     28  N         54.0760   24.7890   51.6440 N.3   145  GLY145     -0.1210
     29  CA        53.2850   24.1330   52.6770 C.3   145  GLY145      0.1956
     30  C         52.8080   25.1700   53.6760 C.2   145  GLY145      0.2612
     31  O         53.5740   26.0380   54.1130 O.2   145  GLY145     -0.2717
     32  N         51.5280   25.1010   54.0080 N.am  146  ASP146     -0.1959
     33  CA        50.9280   25.9470   55.0340 C.3   146  ASP146      0.1840
     34  C         50.6220   25.0980   56.2760 C.2   146  ASP146      0.2621
     35  O         50.2160   23.9230   56.1620 O.2   146  ASP146     -0.2715
     36  CB        49.6300   26.5450   54.5100 C.3   146  ASP146      0.1450
     37  CG        49.8280   27.8580   53.7530 C.2   146  ASP146      0.3671
     38  OD1       50.9880   28.2910   53.4950 O.co2 146  ASP146     -0.2456
     39  OD2       48.7860   28.4800   53.4210 O.co2 146  ASP146     -0.2456
     40  N         50.8590   25.6850   57.4480 N.am  147  VAL147     -0.1977
     41  CA        50.3130   25.1940   58.7090 C.3   147  VAL147      0.1596
     42  C         49.4060   26.3030   59.1930 C.2   147  VAL147      0.2287
     43  O         49.8080   27.4670   59.2080 O.2   147  VAL147     -0.2864
     44  CB        51.3980   24.9970   59.7730 C.3   147  VAL147      0.0276
     45  CG1       50.8590   24.1600   60.9610 C.3   147  VAL147      0.0022
     46  CG2       52.6300   24.3650   59.1590 C.3   147  VAL147      0.0022
     47  N         55.8990   27.2470   54.5720 N.3   212  VAL212     -0.1245
     48  CA        57.1870   26.7080   54.1580 C.3   212  VAL212      0.1561
     49  C         57.2430   26.7620   52.6270 C.2   212  VAL212      0.2260
     50  O         56.3960   26.1900   51.9530 O.2   212  VAL212     -0.2867
     51  CB        57.3460   25.2530   54.6290 C.3   212  VAL212      0.0252
     52  CG1       58.3900   24.5600   53.8450 C.3   212  VAL212      0.0019
     53  CG2       57.7090   25.1980   56.0930 C.3   212  VAL212      0.0019
     54  N         59.1870   25.2870   49.6680 N.3   214  PHE214     -0.1241
     55  CA        60.1660   24.2530   49.3190 C.3   214  PHE214      0.1605
     56  C         61.1860   24.7040   48.2750 C.2   214  PHE214      0.2264
     57  O         62.3380   24.2720   48.2910 O.2   214  PHE214     -0.2867
     58  CB        59.4560   22.9890   48.8580 C.3   214  PHE214      0.0534
     59  CG        58.5590   22.4000   49.8950 C.ar  214  PHE214     -0.0203
     60  CD1       59.0660   22.0050   51.1260 C.ar  214  PHE214     -0.0042
     61  CD2       57.2050   22.2390   49.6450 C.ar  214  PHE214     -0.0042
     62  CE1       58.2350   21.4660   52.0910 C.ar  214  PHE214     -0.0003
     63  CE2       56.3600   21.6950   50.6070 C.ar  214  PHE214     -0.0003
     64  CZ        56.8720   21.3180   51.8340 C.ar  214  PHE214     -0.0000
     65  N         63.8250   22.0500   57.4440 N.3   222  LEU222     -0.1245
     66  CA        62.6190   21.3930   57.8930 C.3   222  LEU222      0.1561
     67  C         62.8740   20.5440   59.1180 C.2   222  LEU222      0.2260
     68  O         61.9830   19.8630   59.5980 O.2   222  LEU222     -0.2867
     69  CB        61.9880   20.5710   56.7570 C.3   222  LEU222      0.0270
     70  CG        61.7160   21.4220   55.5100 C.3   222  LEU222      0.0019
     71  CD1       60.8540   20.6670   54.5490 C.3   222  LEU222      0.0001
     72  CD2       61.0590   22.7630   55.8390 C.3   222  LEU222      0.0001
     73  N         60.8780   23.6670   63.0190 N.3   225  ILE225     -0.1245
     74  CA        60.0230   24.7100   62.4510 C.3   225  ILE225      0.1561
     75  C         59.4170   25.4910   63.6030 C.2   225  ILE225      0.2260
     76  O         58.6560   24.9490   64.3940 O.2   225  ILE225     -0.2867
     77  CB        58.9210   24.1110   61.5320 C.3   225  ILE225      0.0252
     78  CG1       59.5460   23.4760   60.2910 C.3   225  ILE225      0.0019
     79  CG2       57.9590   25.1840   61.0410 C.3   225  ILE225      0.0019
     80  CD1       58.8480   22.1840   59.8660 C.3   225  ILE225      0.0001
     81  N         47.1070   21.3200   57.7540 N.3   246  PHE246     -0.1227
     82  CA        48.2840   21.3280   56.8830 C.3   246  PHE246      0.1736
     83  C         47.8300   21.2690   55.4230 C.2   246  PHE246      0.2595
     84  O         46.9350   20.4810   55.0610 O.2   246  PHE246     -0.2718
     85  CB        49.1900   20.1220   57.1930 C.3   246  PHE246      0.0547
     86  CG        49.5960   20.0320   58.6380 C.ar  246  PHE246     -0.0202
     87  CD1       48.7860   19.3640   59.5660 C.ar  246  PHE246     -0.0042
     88  CD2       50.7670   20.6520   59.0910 C.ar  246  PHE246     -0.0042
     89  CE1       49.1430   19.3040   60.9170 C.ar  246  PHE246     -0.0003
     90  CE2       51.1350   20.5940   60.4530 C.ar  246  PHE246     -0.0003
     91  CZ        50.3080   19.9240   61.3710 C.ar  246  PHE246     -0.0000
     92  N         48.4400   22.1120   54.5970 N.am  247  ASP247     -0.1960
     93  CA        48.0890   22.1760   53.2030 C.3   247  ASP247      0.1840
     94  C         49.3000   22.4290   52.3470 C.2   247  ASP247      0.2621
     95  O         50.1570   23.2720   52.6800 O.2   247  ASP247     -0.2715
     96  CB        47.1060   23.3060   52.9410 C.3   247  ASP247      0.1450
     97  CG        45.7560   23.0390   53.5350 C.2   247  ASP247      0.3671
     98  OD1       45.1620   21.9850   53.2090 O.co2 247  ASP247     -0.2456
     99  OD2       45.2830   23.8820   54.3360 O.co2 247  ASP247     -0.2456
    100  N         49.3420   21.7200   51.2240 N.am  248  VAL248     -0.1977
    101  CA        50.2690   22.0350   50.1650 C.3   248  VAL248      0.1596
    102  C         49.6150   22.6650   48.9270 C.2   248  VAL248      0.2287
    103  O         48.4230   22.4730   48.6400 O.2   248  VAL248     -0.2864
    104  CB        51.1650   20.8330   49.8130 C.3   248  VAL248      0.0276
    105  CG1       51.9490   20.4070   51.0720 C.3   248  VAL248      0.0022
    106  CG2       50.3470   19.6670   49.2010 C.3   248  VAL248      0.0022
    107  N         57.9110   22.4220   65.9180 N.3   295  LEU295     -0.1245
    108  CA        57.8240   21.1260   65.2920 C.3   295  LEU295      0.1561
    109  C         59.2460   20.6520   65.0870 C.2   295  LEU295      0.2260
    110  O         60.0250   21.3020   64.3540 O.2   295  LEU295     -0.2867
    111  CB        57.1100   21.2490   63.9670 C.3   295  LEU295      0.0270
    112  CG        55.5980   21.2510   64.0940 C.3   295  LEU295      0.0019
    113  CD1       55.0210   22.2450   63.1420 C.3   295  LEU295      0.0001
    114  CD2       55.1000   19.8420   63.7640 C.3   295  LEU295      0.0001
    115  N         57.4650   13.9450   63.6730 N.3   303  TYR303     -0.1241
    116  CA        57.7520   15.2110   64.3280 C.3   303  TYR303      0.1605
    117  C         57.1330   15.2180   65.6870 C.2   303  TYR303      0.2264
    118  O         56.0380   14.6830   65.8690 O.2   303  TYR303     -0.2867
    119  CB        57.1780   16.3600   63.4980 C.3   303  TYR303      0.0534
    120  CG        58.0680   16.7300   62.3450 C.ar  303  TYR303     -0.0201
    121  CD1       58.0870   15.9480   61.1790 C.ar  303  TYR303     -0.0009
    122  CD2       58.9240   17.8330   62.4290 C.ar  303  TYR303     -0.0009
    123  CE1       58.9230   16.2540   60.1250 C.ar  303  TYR303      0.0417
    124  CE2       59.7610   18.1670   61.3780 C.ar  303  TYR303      0.0417
    125  CZ        59.7700   17.3650   60.2260 C.ar  303  TYR303      0.1957
    126  OH        60.5840   17.6830   59.1700 O.3   303  TYR303     -0.2866
@<TRIPOS>BOND
     1    56    57    2
     2    56    55    1
     3   103   102    2
     4    58    55    1
     5    58    59    1
     6   102   101    1
     7   106   104    1
     8    55    54    1
     9    61    59   ar
    10    61    63   ar
    11   104   101    1
    12   104   105    1
    13    59    60   ar
    14   101   100    1
    15    63    64   ar
    16    60    62   ar
    17   100    94   am
    18    23    22    2
    19    28    29    1
    20    64    62   ar
    21    50    49    2
    22    94    95    2
    23    94    93    1
    24    22    21    1
    25     7     6    1
    26    49    48    1
    27    29    30    1
    28    21    20    1
    29    21    24    1
    30    96    93    1
    31    96    97    1
    32    93    92    1
    33    98    97   ar
    34    27    25    1
    35    39    37   ar
    36    38    37   ar
    37    97    99   ar
    38    30    32   am
    39    30    31    2
    40     6     8    1
    41     6     5    1
    42    37    36    1
    43    52    51    1
    44    32    33    1
    45    24    25    1
    46     1     2    1
    47    48    47    1
    48    48    51    1
    49    25    26    1
    50    36    33    1
    51    71    70    1
    52    92    83   am
    53    51    53    1
    54     5     2    1
    55     2     3    1
    56    33    34    1
    57    84    83    2
    58    83    82    1
    59    70    72    1
    60    70    69    1
    61    35    34    2
    62    34    40   am
    63     3     4    2
    64     3     9   am
    65    69    66    1
    66    82    85    1
    67    82    81    1
    68     9    10    1
    69    85    86    1
    70    65    66    1
    71    40    41    1
    72    17    15   ar
    73    17    19   ar
    74    15    14   ar
    75    66    67    1
    76    10    11    1
    77    10    13    1
    78    11    12    2
    79    86    88   ar
    80    86    87   ar
    81    19    18   ar
    82    41    42    1
    83    41    44    1
    84    14    13    1
    85    14    16   ar
    86    88    90   ar
    87    67    68    2
    88    46    44    1
    89   126   125    1
    90    42    43    2
    91    87    89   ar
    92    44    45    1
    93    18    16   ar
    94    80    78    1
    95   123   125   ar
    96   123   121   ar
    97   125   124   ar
    98    78    77    1
    99    90    91   ar
   100    89    91   ar
   101    79    77    1
   102   121   120   ar
   103   124   122   ar
   104    77    74    1
   105   120   122   ar
   106   120   119    1
   107    74    73    1
   108    74    75    1
   109   113   112    1
   110   119   116    1
   111    75    76    2
   112   115   116    1
   113   114   112    1
   114   111   112    1
   115   111   108    1
   116   116   117    1
   117   110   109    2
   118   109   108    1
   119   108   107    1
   120   117   118    2
