@<TRIPOS>MOLECULE
tmp/3b3mA02.pdb
 151 147 0 0 0
SMALL
GASTEIGER

@<TRIPOS>ATOM
      1  N          2.8860    8.9700   34.3840 N.3    38  MET38      -0.1245
      2  CA         3.3400    8.6190   33.0410 C.3    38  MET38       0.1570
      3  C          3.1890    9.7610   32.0360 C.2    38  MET38       0.2261
      4  O          4.0830    9.9960   31.2240 O.2    38  MET38      -0.2867
      5  CB         2.5940    7.3870   32.5190 C.3    38  MET38       0.0387
      6  CG         2.9290    6.1030   33.2690 C.3    38  MET38       0.0595
      7  SD         2.5620    4.5980   32.3280 S.3    38  MET38      -0.1393
      8  CE         4.1620    4.3080   31.5150 C.3    38  MET38       0.0692
      9  N         15.3090    7.5430   28.4280 N.3   106  CYS106     -0.1235
     10  CA        16.0830    6.5450   27.6900 C.3   106  CYS106      0.1677
     11  C         17.4050    6.1690   28.3450 C.2   106  CYS106      0.2270
     12  O         18.2910    7.0100   28.4960 O.2   106  CYS106     -0.2867
     13  CB        16.3650    7.0430   26.2580 C.3   106  CYS106      0.0956
     14  SG        17.2190    5.7960   25.2420 S.3   106  CYS106     -0.0801
     15  N          4.3140    1.1490   17.8180 N.3   169  GLN169     -0.1245
     16  CA         5.6440    0.6340   17.4530 C.3   169  GLN169      0.1566
     17  C          5.4660    0.0440   16.0490 C.2   169  GLN169      0.2260
     18  O          4.3930   -0.4730   15.7400 O.2   169  GLN169     -0.2867
     19  CB         6.1020   -0.4850   18.3860 C.3   169  GLN169      0.0367
     20  CG         6.6400   -0.0090   19.7280 C.3   169  GLN169      0.0905
     21  CD         7.0540   -1.1650   20.6150 C.2   169  GLN169      0.2608
     22  OE1        7.8670   -2.0090   20.2270 O.2   169  GLN169     -0.2717
     23  NE2        6.4910   -1.2140   21.8110 N.am  169  GLN169     -0.0878
     24  N         12.9420   -2.9370   18.3370 N.3   256  PRO256     -0.2116
     25  CA        12.0800   -2.0330   19.1020 C.3   256  PRO256      0.1372
     26  C         12.0270   -0.7390   18.2930 C.2   256  PRO256      0.2244
     27  O         13.0430   -0.0720   18.0990 O.2   256  PRO256     -0.2868
     28  CB        12.8190   -1.9020   20.4330 C.3   256  PRO256      0.0268
     29  CG        14.2700   -2.0050   20.0350 C.3   256  PRO256      0.0207
     30  CD        14.2750   -3.0810   18.9570 C.3   256  PRO256      0.0892
     31  N          9.7290    2.6730   18.1040 N.3   258  VAL258     -0.1245
     32  CA         8.6910    3.6080   18.5100 C.3   258  VAL258      0.1561
     33  C          8.2280    4.4870   17.3620 C.2   258  VAL258      0.2260
     34  O          9.0270    5.2010   16.7520 O.2   258  VAL258     -0.2867
     35  CB         9.1970    4.5140   19.6450 C.3   258  VAL258      0.0252
     36  CG1        8.1740    5.6240   19.9230 C.3   258  VAL258      0.0019
     37  CG2        9.4300    3.6820   20.8880 C.3   258  VAL258      0.0019
     38  N         11.5250    5.6520   15.1740 N.3   275  PHE275     -0.1241
     39  CA        12.9340    5.4710   15.5030 C.3   275  PHE275      0.1605
     40  C         13.0930    4.1390   16.1880 C.2   275  PHE275      0.2264
     41  O         12.1470    3.6230   16.7920 O.2   275  PHE275     -0.2867
     42  CB        13.4240    6.6200   16.4090 C.3   275  PHE275      0.0534
     43  CG        12.7000    6.7140   17.7240 C.ar  275  PHE275     -0.0203
     44  CD1       12.9990    5.8370   18.7680 C.ar  275  PHE275     -0.0042
     45  CD2       11.7360    7.6950   17.9280 C.ar  275  PHE275     -0.0042
     46  CE1       12.3450    5.9500   19.9970 C.ar  275  PHE275     -0.0003
     47  CE2       11.0790    7.8170   19.1540 C.ar  275  PHE275     -0.0003
     48  CZ        11.3850    6.9480   20.1870 C.ar  275  PHE275     -0.0000
     49  N         16.1660    1.2100   18.0890 N.3   277  GLY277     -0.1210
     50  CA        17.4930    0.9070   18.5950 C.3   277  GLY277      0.1956
     51  C         17.5070   -0.6120   18.7110 C.2   277  GLY277      0.2612
     52  O         17.2350   -1.3190   17.7420 O.2   277  GLY277     -0.2717
     53  N         17.8390   -1.1180   19.8860 N.am  278  TRP278     -0.1962
     54  CA        17.8130   -2.5510   20.1320 C.3   278  TRP278      0.1771
     55  C         17.3280   -2.6750   21.5620 C.2   278  TRP278      0.2620
     56  O         17.4360   -1.7290   22.3490 O.2   278  TRP278     -0.2715
     57  CB        19.1920   -3.1920   19.9570 C.3   278  TRP278      0.0590
     58  CG        20.2930   -2.5350   20.7060 C.ar  278  TRP278      0.0006
     59  CD1       20.5520   -2.6280   22.0490 C.ar  278  TRP278      0.0946
     60  CD2       21.3250   -1.7220   20.1520 C.ar  278  TRP278      0.0152
     61  NE1       21.6910   -1.9260   22.3590 N.ar  278  TRP278     -0.2442
     62  CE2       22.1880   -1.3590   21.2120 C.ar  278  TRP278      0.0810
     63  CE3       21.6100   -1.2620   18.8580 C.ar  278  TRP278      0.0012
     64  CZ2       23.3240   -0.5560   21.0170 C.ar  278  TRP278      0.0191
     65  CZ3       22.7400   -0.4650   18.6630 C.ar  278  TRP278      0.0001
     66  CH2       23.5800   -0.1230   19.7360 C.ar  278  TRP278      0.0015
     67  N         16.7770   -3.8350   21.8790 N.am  279  TYR279     -0.1960
     68  CA        16.2140   -4.1120   23.1990 C.3   279  TYR279      0.1771
     69  C         17.1610   -4.2980   24.3580 C.2   279  TYR279      0.2619
     70  O         18.3130   -4.6920   24.1870 O.2   279  TYR279     -0.2715
     71  CB        15.3730   -5.3860   23.1420 C.3   279  TYR279      0.0574
     72  CG        13.9460   -5.1910   22.7150 C.ar  279  TYR279     -0.0198
     73  CD1       13.4860   -5.6700   21.4850 C.ar  279  TYR279     -0.0009
     74  CD2       13.0380   -4.5760   23.5670 C.ar  279  TYR279     -0.0009
     75  CE1       12.1400   -5.5420   21.1260 C.ar  279  TYR279      0.0417
     76  CE2       11.7070   -4.4420   23.2230 C.ar  279  TYR279      0.0417
     77  CZ        11.2600   -4.9250   22.0070 C.ar  279  TYR279      0.1957
     78  OH         9.9290   -4.7640   21.7040 O.3   279  TYR279     -0.2866
     79  N         16.6330   -4.0100   25.5480 N.am  280  MET280     -0.1977
     80  CA        17.3180   -4.2600   26.8070 C.3   280  MET280      0.1605
     81  C         16.4130   -5.4100   27.2250 C.2   280  MET280      0.2287
     82  O         15.1910   -5.2830   27.1740 O.2   280  MET280     -0.2864
     83  CB        17.1870   -3.0890   27.7930 C.3   280  MET280      0.0413
     84  CG        17.7430   -3.4270   29.1720 C.3   280  MET280      0.0598
     85  SD        18.0320   -2.0060   30.2320 S.3   280  MET280     -0.1393
     86  CE        16.3520   -1.6560   30.7940 C.3   280  MET280      0.0692
     87  N         12.8010   -5.3140   28.9580 N.3   283  GLU283     -0.1245
     88  CA        11.6440   -4.7580   28.2730 C.3   283  GLU283      0.1567
     89  C         10.7010   -5.8770   27.8470 C.2   283  GLU283      0.2260
     90  O          9.4790   -5.7580   27.9430 O.2   283  GLU283     -0.2867
     91  CB        12.0620   -3.9710   27.0270 C.3   283  GLU283      0.0388
     92  CG        12.8930   -2.7370   27.3080 C.3   283  GLU283      0.1160
     93  CD        13.1850   -1.9310   26.0470 C.2   283  GLU283      0.3649
     94  OE1       12.2590   -1.2630   25.5300 O.co2 283  GLU283     -0.2457
     95  OE2       14.3360   -1.9740   25.5730 O.co2 283  GLU283     -0.2457
     96  N          8.4910   -6.6780   31.3460 N.3   287  ARG287     -0.1231
     97  CA         7.2830   -5.9610   30.9560 C.3   287  ARG287      0.1694
     98  C          6.3360   -6.6610   29.9650 C.2   287  ARG287      0.2592
     99  O          5.2060   -6.9900   30.3150 O.2   287  ARG287     -0.2718
    100  CB         7.6700   -4.5770   30.4190 C.3   287  ARG287      0.0321
    101  CG         8.5240   -3.7440   31.4120 C.3   287  ARG287      0.0489
    102  CD         7.8880   -3.6640   32.8220 C.3   287  ARG287      0.2205
    103  NE         6.5110   -3.1790   32.7710 N.pl3 287  ARG287     -0.0865
    104  CZ         6.1610   -1.9210   32.5010 C.cat 287  ARG287      0.5346
    105  NH1        7.0840   -0.9880   32.2740 N.pl3 287  ARG287      0.1354
    106  NH2        4.8770   -1.5990   32.4140 N.pl3 287  ARG287      0.1354
    107  N          6.7900   -6.8940   28.7380 N.am  288  ASP288     -0.1974
    108  CA         5.9350   -7.5190   27.7230 C.3   288  ASP288      0.1709
    109  C          5.3740   -8.8760   28.1390 C.2   288  ASP288      0.2293
    110  O          4.2030   -9.1790   27.9040 O.2   288  ASP288     -0.2864
    111  CB         6.7040   -7.6800   26.4060 C.3   288  ASP288      0.1436
    112  CG         7.1880   -6.3620   25.8570 C.2   288  ASP288      0.3671
    113  OD1        6.4640   -5.3600   26.0620 O.co2 288  ASP288     -0.2456
    114  OD2        8.2770   -6.3270   25.2230 O.co2 288  ASP288     -0.2456
    115  N         -0.2640   -7.5520   30.2180 N.3   294  ARG294     -0.1245
    116  CA         0.3520   -7.8650   28.9340 C.3   294  ARG294      0.1563
    117  C          0.2350   -9.3780   28.7210 C.2   294  ARG294      0.2260
    118  O         -0.8510   -9.9400   28.9290 O.2   294  ARG294     -0.2867
    119  CB         1.8130   -7.3960   28.9060 C.3   294  ARG294      0.0307
    120  CG         1.9720   -5.8720   29.0340 C.3   294  ARG294      0.0489
    121  CD         1.3310   -5.0940   27.8740 C.3   294  ARG294      0.2205
    122  NE         1.9370   -5.4210   26.5810 N.pl3 294  ARG294     -0.0865
    123  CZ         3.2120   -5.2000   26.2620 C.cat 294  ARG294      0.5346
    124  NH1        4.0430   -4.6350   27.1340 N.pl3 294  ARG294      0.1354
    125  NH2        3.6710   -5.5840   25.0760 N.pl3 294  ARG294      0.1354
    126  N         11.9810    5.7950   35.1920 N.3   369  TRP369     -0.1241
    127  CA        12.0750    5.0640   33.9340 C.3   369  TRP369      0.1605
    128  C         13.4280    4.4100   33.6870 C.2   369  TRP369      0.2264
    129  O         13.5050    3.3560   33.0560 O.2   369  TRP369     -0.2867
    130  CB        11.7700    6.0060   32.7700 C.3   369  TRP369      0.0550
    131  CG        10.3180    6.0580   32.4660 C.ar  369  TRP369      0.0003
    132  CD1        9.3070    6.4590   33.3040 C.ar  369  TRP369      0.0946
    133  CD2        9.6930    5.6460   31.2470 C.ar  369  TRP369      0.0152
    134  NE1        8.0870    6.3130   32.6720 N.ar  369  TRP369     -0.2442
    135  CE2        8.2970    5.8180   31.4100 C.ar  369  TRP369      0.0810
    136  CE3       10.1760    5.1500   30.0320 C.ar  369  TRP369      0.0012
    137  CZ2        7.3810    5.5090   30.3980 C.ar  369  TRP369      0.0191
    138  CZ3        9.2680    4.8420   29.0220 C.ar  369  TRP369      0.0001
    139  CH2        7.8820    5.0250   29.2150 C.ar  369  TRP369      0.0015
    140  N          5.1100   12.9800   23.5290 N.3   397  TYR397     -0.1241
    141  CA         3.9710   12.1330   23.2880 C.3   397  TYR397      0.1605
    142  C          3.0100   13.0320   22.5210 C.2   397  TYR397      0.2264
    143  O          3.1820   14.2520   22.4890 O.2   397  TYR397     -0.2867
    144  CB         3.3480   11.7100   24.6040 C.3   397  TYR397      0.0534
    145  CG         4.2700   10.8950   25.4670 C.ar  397  TYR397     -0.0201
    146  CD1        4.6210   11.3310   26.7440 C.ar  397  TYR397     -0.0009
    147  CD2        4.7430    9.6500   25.0360 C.ar  397  TYR397     -0.0009
    148  CE1        5.4130   10.5450   27.5790 C.ar  397  TYR397      0.0417
    149  CE2        5.5390    8.8560   25.8630 C.ar  397  TYR397      0.0417
    150  CZ         5.8640    9.3110   27.1330 C.ar  397  TYR397      0.1957
    151  OH         6.6260    8.5340   27.9710 O.3   397  TYR397     -0.2866
@<TRIPOS>BOND
     1    38    39    1
     2    39    40    1
     3    39    42    1
     4    18    17    2
     5    17    16    1
     6    40    41    2
     7    42    43    1
     8    34    33    2
     9    33    32    1
    10    16    15    1
    11    16    19    1
    12    43    45   ar
    13    43    44   ar
    14    52    51    2
    15    45    47   ar
    16    49    50    1
    17    27    26    2
    18    31    32    1
    19    26    25    1
    20    24    30    1
    21    24    25    1
    22    19    20    1
    23    32    35    1
    24    50    51    1
    25    65    63   ar
    26    65    66   ar
    27    51    53   am
    28    44    46   ar
    29    63    60   ar
    30    30    29    1
    31    25    28    1
    32    47    48   ar
    33    35    36    1
    34    35    37    1
    35    20    21    1
    36    66    64   ar
    37    53    54    1
    38    57    54    1
    39    57    58    1
    40    46    48   ar
    41    29    28    1
    42    54    55    1
    43    60    58   ar
    44    60    62   ar
    45    22    21    2
    46    21    23   am
    47    58    59   ar
    48    64    62   ar
    49    75    73   ar
    50    75    77   ar
    51    62    61   ar
    52    73    72   ar
    53    55    67   am
    54    55    56    2
    55    78    77    1
    56    67    68    1
    57    77    76   ar
    58    59    61   ar
    59   143   142    2
    60   142   141    1
    61    72    71    1
    62    72    74   ar
    63    71    68    1
    64    68    69    1
    65    76    74   ar
    66   141   140    1
    67   141   144    1
    68    70    69    2
    69    69    79   am
    70   144   145    1
    71   147   145   ar
    72   147   149   ar
    73   125   123    1
    74   114   112   ar
    75    14    13    1
    76   145   146   ar
    77    94    93   ar
    78    79    80    1
    79    95    93   ar
    80   112   113   ar
    81   112   111    1
    82   149   150   ar
    83    93    92    1
    84    13    10    1
    85   123   122    2
    86   123   124    1
    87   111   108    1
    88   122   121    1
    89   146   148   ar
    90    80    81    1
    91    80    83    1
    92    91    92    1
    93    91    88    1
    94   150   148   ar
    95   150   151    1
    96    82    81    2
    97    10    11    1
    98    10     9    1
    99   108   109    1
   100   108   107    1
   101    83    84    1
   102    89    90    2
   103    89    88    1
   104   121   120    1
   105   110   109    2
   106    88    87    1
   107    11    12    2
   108   117   118    2
   109   117   116    1
   110   107    98   am
   111   119   116    1
   112   119   120    1
   113   116   115    1
   114   138   139   ar
   115   138   136   ar
   116    84    85    1
   117   139   137   ar
   118    98    99    2
   119    98    97    1
   120   136   133   ar
   121    85    86    1
   122   137   135   ar
   123   100    97    1
   124   100   101    1
   125    97    96    1
   126     4     3    2
   127   133   135   ar
   128   133   131   ar
   129   135   134   ar
   130   101   102    1
   131     8     7    1
   132     3     2    1
   133   105   104    1
   134     7     6    1
   135   106   104    1
   136   131   130    1
   137   131   132   ar
   138   104   103    2
   139     5     2    1
   140     5     6    1
   141   134   132   ar
   142   130   127    1
   143   103   102    1
   144     2     1    1
   145   129   128    2
   146   128   127    1
   147   127   126    1
