@<TRIPOS>MOLECULE
tmp/3b3nB03.pdb
 159 158 0 0 0
SMALL
GASTEIGER

@<TRIPOS>ATOM
      1  N         22.1280    5.8370   64.5950 N.3   170  SER170     -0.1202
      2  CA        21.1560    6.0710   63.5280 C.3   170  SER170      0.2020
      3  C         19.9590    5.1120   63.6620 C.2   170  SER170      0.2618
      4  O         18.8460    5.4440   63.2650 O.2   170  SER170     -0.2717
      5  CB        21.8010    5.9020   62.1450 C.3   170  SER170      0.2103
      6  OG        22.3400    4.6060   61.9780 O.3   170  SER170     -0.2182
      7  N         20.2220    3.9270   64.2060 N.am  171  GLN171     -0.1979
      8  CA        19.2310    2.8870   64.4620 C.3   171  GLN171      0.1601
      9  C         19.6340    2.3770   65.8500 C.2   171  GLN171      0.2287
     10  O         20.8230    2.3510   66.1680 O.2   171  GLN171     -0.2864
     11  CB        19.3290    1.7430   63.4400 C.3   171  GLN171      0.0394
     12  CG        18.7410    2.0230   62.0720 C.3   171  GLN171      0.0908
     13  CD        18.8470    0.8190   61.1420 C.2   171  GLN171      0.2608
     14  OE1       18.3800   -0.2920   61.4610 O.2   171  GLN171     -0.2717
     15  NE2       19.4550    1.0300   59.9960 N.am  171  GLN171     -0.0878
     16  N         22.4430   -1.8640   65.5610 N.3   174  ARG174     -0.1245
     17  CA        23.2290   -1.9660   64.3250 C.3   174  ARG174      0.1563
     18  C         24.5730   -2.5830   64.6970 C.2   174  ARG174      0.2260
     19  O         24.9960   -2.5050   65.8610 O.2   174  ARG174     -0.2867
     20  CB        23.5200   -0.5940   63.6980 C.3   174  ARG174      0.0307
     21  CG        22.3360    0.1840   63.1610 C.3   174  ARG174      0.0489
     22  CD        22.8230    1.3220   62.2300 C.3   174  ARG174      0.2205
     23  NE        22.9940    0.8370   60.8680 N.pl3 174  ARG174     -0.0865
     24  CZ        23.2340    1.6010   59.8100 C.cat 174  ARG174      0.5346
     25  NH1       23.3510    2.9140   59.9270 N.pl3 174  ARG174      0.1354
     26  NH2       23.3290    1.0360   58.6200 N.pl3 174  ARG174      0.1354
     27  N         13.8860   -3.5370   63.6020 N.3   258  PRO258     -0.2102
     28  CA        14.3270   -2.3990   62.7810 C.3   258  PRO258      0.1504
     29  C         13.9010   -1.1450   63.5670 C.2   258  PRO258      0.2576
     30  O         12.7250   -1.0190   63.9260 O.2   258  PRO258     -0.2718
     31  CB        13.5400   -2.5820   61.4900 C.3   258  PRO258      0.0282
     32  CG        12.2400   -3.1690   61.9580 C.3   258  PRO258      0.0208
     33  CD        12.6450   -4.1390   63.0750 C.3   258  PRO258      0.0893
     34  N         14.8240   -0.2240   63.8470 N.am  259  ALA259     -0.1966
     35  CA        14.4460    0.9440   64.6530 C.3   259  ALA259      0.1728
     36  C         15.1950    2.2650   64.4630 C.2   259  ALA259      0.2616
     37  O         16.2340    2.5020   65.1020 O.2   259  ALA259     -0.2715
     38  CB        14.4910    0.5600   66.1050 C.3   259  ALA259      0.0334
     39  N         14.6410    3.1360   63.6260 N.am  260  VAL260     -0.1977
     40  CA        15.2340    4.4400   63.3200 C.3   260  VAL260      0.1596
     41  C         15.3080    5.4120   64.4950 C.2   260  VAL260      0.2287
     42  O         14.3020    5.7150   65.1120 O.2   260  VAL260     -0.2864
     43  CB        14.4660    5.0760   62.1580 C.3   260  VAL260      0.0276
     44  CG1       14.7900    6.5420   62.0400 C.3   260  VAL260      0.0022
     45  CG2       14.8190    4.3280   60.8630 C.3   260  VAL260      0.0022
     46  N         17.4710    8.5800   64.3970 N.3   262  ASN262     -0.1225
     47  CA        18.0850    9.8690   64.0960 C.3   262  ASN262      0.1785
     48  C         17.1650   10.8860   63.4390 C.2   262  ASN262      0.2597
     49  O         17.6150   11.9370   62.9640 O.2   262  ASN262     -0.2718
     50  CB        19.3460    9.6710   63.2350 C.3   262  ASN262      0.1169
     51  CG        19.0690    8.9370   61.9170 C.2   262  ASN262      0.2627
     52  OD1       17.9460    8.4980   61.6400 O.2   262  ASN262     -0.2716
     53  ND2       20.1070    8.8010   61.0980 N.am  262  ASN262     -0.0877
     54  N         15.8760   10.5940   63.4100 N.am  263  MET263     -0.1979
     55  CA        14.9620   11.5330   62.7980 C.3   263  MET263      0.1605
     56  C         14.3630   12.4630   63.8190 C.2   263  MET263      0.2287
     57  O         14.4800   12.2350   65.0260 O.2   263  MET263     -0.2864
     58  CB        13.8820   10.8050   62.0040 C.3   263  MET263      0.0413
     59  CG        14.4710   10.0940   60.7900 C.3   263  MET263      0.0598
     60  SD        13.2330    9.3670   59.7140 S.3   263  MET263     -0.1393
     61  CE        12.8580   10.7860   58.6160 C.3   263  MET263      0.0692
     62  N         11.8490    5.0950   66.8990 N.3   277  PHE277     -0.1227
     63  CA        10.6680    4.3140   66.5610 C.3   277  PHE277      0.1736
     64  C         11.0690    2.9680   65.9150 C.2   277  PHE277      0.2596
     65  O         12.1430    2.8420   65.3310 O.2   277  PHE277     -0.2718
     66  CB         9.7320    5.1060   65.6360 C.3   277  PHE277      0.0547
     67  CG        10.3540    5.5290   64.3190 C.ar  277  PHE277     -0.0202
     68  CD1       10.3620    4.6740   63.2220 C.ar  277  PHE277     -0.0042
     69  CD2       10.8620    6.8230   64.1590 C.ar  277  PHE277     -0.0042
     70  CE1       10.8560    5.1000   61.9790 C.ar  277  PHE277     -0.0003
     71  CE2       11.3570    7.2510   62.9260 C.ar  277  PHE277     -0.0003
     72  CZ        11.3510    6.3920   61.8360 C.ar  277  PHE277     -0.0000
     73  N         10.1980    1.9730   66.0310 N.am  278  SER278     -0.1938
     74  CA        10.4790    0.6440   65.4820 C.3   278  SER278      0.2055
     75  C          9.2020   -0.0530   65.0170 C.2   278  SER278      0.2644
     76  O          8.1230    0.2560   65.4940 O.2   278  SER278     -0.2714
     77  CB        11.1550   -0.2200   66.5550 C.3   278  SER278      0.2130
     78  OG        10.3270   -0.3080   67.7040 O.3   278  SER278     -0.2179
     79  N          9.3450   -0.9900   64.0820 N.am  279  GLY279     -0.1939
     80  CA         8.2140   -1.7640   63.5900 C.3   279  GLY279      0.2014
     81  C          8.7200   -3.1970   63.4310 C.2   279  GLY279      0.2639
     82  O          9.2220   -3.7680   64.4010 O.2   279  GLY279     -0.2714
     83  N          8.5610   -3.7780   62.2390 N.am  280  TRP280     -0.1959
     84  CA         9.1030   -5.1030   61.9140 C.3   280  TRP280      0.1771
     85  C          9.6110   -5.0140   60.4620 C.2   280  TRP280      0.2620
     86  O          9.1490   -4.1830   59.6700 O.2   280  TRP280     -0.2715
     87  CB         8.0820   -6.2400   62.0780 C.3   280  TRP280      0.0590
     88  CG         6.7860   -6.0480   61.3950 C.ar  280  TRP280      0.0006
     89  CD1        6.5040   -6.2380   60.0670 C.ar  280  TRP280      0.0946
     90  CD2        5.5600   -5.6850   62.0220 C.ar  280  TRP280      0.0152
     91  NE1        5.1590   -6.0240   59.8370 N.ar  280  TRP280     -0.2442
     92  CE2        4.5570   -5.6810   61.0210 C.ar  280  TRP280      0.0810
     93  CE3        5.2060   -5.3640   63.3420 C.ar  280  TRP280      0.0012
     94  CZ2        3.2190   -5.3660   61.3030 C.ar  280  TRP280      0.0191
     95  CZ3        3.8760   -5.0550   63.6260 C.ar  280  TRP280      0.0001
     96  CH2        2.8990   -5.0580   62.6070 C.ar  280  TRP280      0.0015
     97  N         10.5770   -5.8560   60.1270 N.am  281  TYR281     -0.1960
     98  CA        11.2110   -5.8260   58.8100 C.3   281  TYR281      0.1771
     99  C         10.4470   -6.3350   57.6100 C.2   281  TYR281      0.2619
    100  O          9.5940   -7.2230   57.7180 O.2   281  TYR281     -0.2715
    101  CB        12.5170   -6.6250   58.8430 C.3   281  TYR281      0.0574
    102  CG        13.7530   -5.8800   59.2780 C.ar  281  TYR281     -0.0198
    103  CD1       14.3300   -6.1100   60.5280 C.ar  281  TYR281     -0.0009
    104  CD2       14.3940   -4.9980   58.4070 C.ar  281  TYR281     -0.0009
    105  CE1       15.5330   -5.4820   60.9010 C.ar  281  TYR281      0.0417
    106  CE2       15.5860   -4.3630   58.7570 C.ar  281  TYR281      0.0417
    107  CZ        16.1440   -4.6150   60.0020 C.ar  281  TYR281      0.1957
    108  OH        17.3310   -3.9990   60.3280 O.3   281  TYR281     -0.2866
    109  N         10.7810   -5.7540   56.4600 N.am  282  MET282     -0.1977
    110  CA        10.2890   -6.2100   55.1650 C.3   282  MET282      0.1605
    111  C         11.5790   -6.9340   54.7570 C.2   282  MET282      0.2287
    112  O         12.6830   -6.3920   54.9320 O.2   282  MET282     -0.2864
    113  CB         9.9940   -5.0580   54.1960 C.3   282  MET282      0.0413
    114  CG         9.4890   -5.5650   52.8340 C.3   282  MET282      0.0598
    115  SD         8.7350   -4.3830   51.7120 S.3   282  MET282     -0.1393
    116  CE        10.2260   -3.5060   51.0890 C.3   282  MET282      0.0692
    117  N         14.9300   -5.3100   53.0380 N.3   285  GLU285     -0.1245
    118  CA        15.7770   -4.3330   53.7130 C.3   285  GLU285      0.1567
    119  C         17.0960   -5.0170   54.0800 C.2   285  GLU285      0.2260
    120  O         18.1830   -4.4450   53.9160 O.2   285  GLU285     -0.2867
    121  CB        15.0850   -3.7930   54.9800 C.3   285  GLU285      0.0388
    122  CG        13.7250   -3.1190   54.7240 C.3   285  GLU285      0.1160
    123  CD        13.0760   -2.5840   56.0000 C.2   285  GLU285      0.3649
    124  OE1       13.6420   -1.6490   56.6030 O.co2 285  GLU285     -0.2457
    125  OE2       12.0080   -3.1000   56.3990 O.co2 285  GLU285     -0.2457
    126  N         21.0910   -4.4200   53.1150 N.3   290  ASP290     -0.1239
    127  CA        22.1060   -4.6790   54.1420 C.3   290  ASP290      0.1674
    128  C         23.1310   -5.7450   53.6870 C.2   290  ASP290      0.2266
    129  O         24.3310   -5.6410   53.9580 O.2   290  ASP290     -0.2867
    130  CB        21.4500   -5.1300   55.4720 C.3   290  ASP290      0.1410
    131  CG        20.5450   -4.0590   56.1060 C.2   290  ASP290      0.3668
    132  OD1       20.9610   -2.8900   56.1670 O.co2 290  ASP290     -0.2456
    133  OD2       19.4240   -4.3920   56.5680 O.co2 290  ASP290     -0.2456
    134  N         10.9920    5.4400   46.8860 N.3   371  TRP371     -0.1241
    135  CA        11.2020    4.6640   48.1110 C.3   371  TRP371      0.1605
    136  C         10.2190    3.5220   48.3240 C.2   371  TRP371      0.2264
    137  O         10.5660    2.5080   48.9310 O.2   371  TRP371     -0.2867
    138  CB        11.1550    5.5620   49.3580 C.3   371  TRP371      0.0550
    139  CG        12.4680    6.2490   49.6500 C.ar  371  TRP371      0.0003
    140  CD1       13.1500    7.0910   48.8170 C.ar  371  TRP371      0.0946
    141  CD2       13.2800    6.1050   50.8270 C.ar  371  TRP371      0.0152
    142  NE1       14.3290    7.4730   49.3900 N.ar  371  TRP371     -0.2442
    143  CE2       14.4410    6.8860   50.6260 C.ar  371  TRP371      0.0810
    144  CE3       13.1430    5.3980   52.0250 C.ar  371  TRP371      0.0012
    145  CZ2       15.4700    6.9750   51.5840 C.ar  371  TRP371      0.0191
    146  CZ3       14.1700    5.4880   52.9890 C.ar  371  TRP371      0.0001
    147  CH2       15.3140    6.2690   52.7580 C.ar  371  TRP371      0.0015
    148  N         14.4850   14.8050   58.6020 N.3   399  TYR399     -0.1241
    149  CA        15.8880   14.5150   58.7580 C.3   399  TYR399      0.1605
    150  C         16.4460   15.6460   59.5940 C.2   399  TYR399      0.2264
    151  O         15.8340   16.7120   59.7290 O.2   399  TYR399     -0.2867
    152  CB        16.5760   14.4670   57.4030 C.3   399  TYR399      0.0534
    153  CG        16.0860   13.3200   56.5650 C.ar  399  TYR399     -0.0201
    154  CD1       15.3410   13.5570   55.4120 C.ar  399  TYR399     -0.0009
    155  CD2       16.3650   11.9920   56.9220 C.ar  399  TYR399     -0.0009
    156  CE1       14.8800   12.5100   54.6080 C.ar  399  TYR399      0.0417
    157  CE2       15.9120   10.9180   56.1280 C.ar  399  TYR399      0.0417
    158  CZ        15.1720   11.2000   54.9700 C.ar  399  TYR399      0.1957
    159  OH        14.7490   10.2020   54.1280 O.3   399  TYR399     -0.2866
@<TRIPOS>BOND
     1   134   135    1
     2   135   136    1
     3   135   138    1
     4   136   137    2
     5   140   142   ar
     6   140   139   ar
     7   138   139    1
     8   142   143   ar
     9   139   141   ar
    10   143   141   ar
    11   143   145   ar
    12   141   144   ar
    13   116   115    1
    14   145   147   ar
    15   115   114    1
    16   144   146   ar
    17   147   146   ar
    18   114   113    1
    19   117   118    1
    20   126   127    1
    21   128   129    2
    22   128   127    1
    23   118   119    1
    24   118   121    1
    25   120   119    2
    26   159   158    1
    27   127   130    1
    28   113   110    1
    29   156   158   ar
    30   156   154   ar
    31   122   121    1
    32   122   123    1
    33   111   112    2
    34   111   110    1
    35   158   157   ar
    36   110   109    1
    37   154   153   ar
    38   130   131    1
    39   123   125   ar
    40   123   124   ar
    41   131   132   ar
    42   131   133   ar
    43   157   155   ar
    44   109    99   am
    45   153   155   ar
    46   153   152    1
    47   152   149    1
    48    99   100    2
    49    99    98    1
    50   104   106   ar
    51   104   102   ar
    52   148   149    1
    53    61    60    1
    54    26    24    1
    55   106   107   ar
    56   149   150    1
    57    98   101    1
    58    98    97    1
    59   101   102    1
    60   102   103   ar
    61   150   151    2
    62    86    85    2
    63    60    59    1
    64    24    25    1
    65    24    23    2
    66    91    89   ar
    67    91    92   ar
    68    15    13   am
    69   107   108    1
    70   107   105   ar
    71    89    88   ar
    72    97    85   am
    73    85    84    1
    74   103   105   ar
    75    59    58    1
    76    45    43    1
    77    23    22    1
    78    92    94   ar
    79    92    90   ar
    80    53    51   am
    81    13    14    2
    82    13    12    1
    83    94    96   ar
    84    88    90   ar
    85    88    87    1
    86    31    32    1
    87    31    28    1
    88    52    51    2
    89    72    70   ar
    90    72    71   ar
    91    84    87    1
    92    84    83    1
    93    51    50    1
    94    32    33    1
    95     6     5    1
    96    70    68   ar
    97    58    55    1
    98    90    93   ar
    99    44    43    1
   100    12    11    1
   101     5     2    1
   102    43    40    1
   103    22    21    1
   104    83    81   am
   105    96    95   ar
   106    28    29    1
   107    28    27    1
   108    55    54    1
   109    55    56    1
   110    71    69   ar
   111    49    48    2
   112    33    27    1
   113    21    20    1
   114    68    67   ar
   115    50    47    1
   116     4     3    2
   117    40    39    1
   118    40    41    1
   119    93    95   ar
   120    54    48   am
   121    81    80    1
   122    81    82    2
   123    48    47    1
   124    11     8    1
   125     2     3    1
   126     2     1    1
   127    29    34   am
   128    29    30    2
   129    80    79    1
   130    39    36   am
   131     3     7   am
   132    20    17    1
   133    56    57    2
   134    34    35    1
   135    79    75   am
   136    47    46    1
   137    69    67   ar
   138     7     8    1
   139    67    66    1
   140    17    18    1
   141    17    16    1
   142     8     9    1
   143    36    35    1
   144    36    37    2
   145    41    42    2
   146    35    38    1
   147    18    19    2
   148    75    74    1
   149    75    76    2
   150    65    64    2
   151    74    73    1
   152    74    77    1
   153    66    63    1
   154     9    10    2
   155    64    73   am
   156    64    63    1
   157    77    78    1
   158    63    62    1
