@<TRIPOS>MOLECULE
tmp/3b3pA02.pdb
 179 175 0 0 0
SMALL
GASTEIGER

@<TRIPOS>ATOM
      1  N          2.8850    9.0680   34.6510 N.3    38  MET38      -0.1230
      2  CA         3.3060    8.7140   33.2970 C.3    38  MET38       0.1702
      3  C          3.2250    9.8300   32.2540 C.2    38  MET38       0.2592
      4  O          4.0830    9.9060   31.3740 O.2    38  MET38      -0.2718
      5  CB         2.5280    7.4830   32.8010 C.3    38  MET38       0.0401
      6  CG         2.8720    6.1850   33.5340 C.3    38  MET38       0.0596
      7  SD         2.7520    4.6830   32.4960 S.3    38  MET38      -0.1393
      8  CE         4.2470    4.8260   31.5410 C.3    38  MET38       0.0692
      9  N          2.2070   10.6880   32.3550 N.am   39  LEU39      -0.1980
     10  CA         2.0220   11.8000   31.4160 C.3    39  LEU39       0.1596
     11  C          1.5720   13.0680   32.1650 C.2    39  LEU39       0.2287
     12  O          0.3930   13.4010   32.1540 O.2    39  LEU39      -0.2864
     13  CB         0.9560   11.4090   30.3900 C.3    39  LEU39       0.0297
     14  CG         1.0760    9.9890   29.8170 C.3    39  LEU39       0.0022
     15  CD1       -0.2370    9.5560   29.1460 C.3    39  LEU39       0.0001
     16  CD2        2.2470    9.9440   28.8400 C.3    39  LEU39       0.0001
     17  N         15.3480    7.4960   28.5260 N.3   108  CYS108     -0.1235
     18  CA        16.0940    6.4790   27.7960 C.3   108  CYS108      0.1677
     19  C         17.4030    6.1580   28.5280 C.2   108  CYS108      0.2270
     20  O         18.2150    7.0520   28.7860 O.2   108  CYS108     -0.2867
     21  CB        16.3930    6.9680   26.3720 C.3   108  CYS108      0.0956
     22  SG        17.2480    5.6990   25.3780 S.3   108  CYS108     -0.0801
     23  N          1.7540    1.9030   17.6750 N.3   170  SER170     -0.1202
     24  CA         2.5420    2.4770   18.7480 C.3   170  SER170      0.2020
     25  C          4.0130    2.1600   18.4390 C.2   170  SER170      0.2618
     26  O          4.8970    2.9630   18.7070 O.2   170  SER170     -0.2717
     27  CB         2.1220    1.8820   20.0940 C.3   170  SER170      0.2103
     28  OG         2.5180    0.5280   20.2050 O.3   170  SER170     -0.2182
     29  N          4.2530    0.9800   17.8680 N.am  171  GLN171     -0.1979
     30  CA         5.5850    0.5290   17.4530 C.3   171  GLN171      0.1601
     31  C          5.4460   -0.0340   16.0270 C.2   171  GLN171      0.2287
     32  O          4.3490   -0.3940   15.6060 O.2   171  GLN171     -0.2864
     33  CB         6.1070   -0.5450   18.4110 C.3   171  GLN171      0.0394
     34  CG         6.3860    0.0020   19.8140 C.3   171  GLN171      0.0908
     35  CD         6.7850   -1.0730   20.8310 C.2   171  GLN171      0.2608
     36  OE1        7.7760   -1.7960   20.6520 O.2   171  GLN171     -0.2717
     37  NE2        6.0090   -1.1740   21.9080 N.am  171  GLN171     -0.0878
     38  N          4.6040   -5.1950   16.4130 N.3   174  ARG174     -0.1245
     39  CA         3.8680   -5.6070   17.6200 C.3   174  ARG174      0.1563
     40  C          2.8140   -6.6810   17.3120 C.2   174  ARG174      0.2260
     41  O          2.1580   -6.6260   16.2610 O.2   174  ARG174     -0.2867
     42  CB         3.1360   -4.4300   18.2710 C.3   174  ARG174      0.0307
     43  CG         4.0140   -3.4240   18.9700 C.3   174  ARG174      0.0489
     44  CD         3.2230   -2.5730   19.9610 C.3   174  ARG174      0.2205
     45  NE         3.3990   -3.0120   21.3420 N.pl3 174  ARG174     -0.0865
     46  CZ         2.7420   -2.4820   22.3730 C.cat 174  ARG174      0.5346
     47  NH1        1.8680   -1.5020   22.1780 N.pl3 174  ARG174      0.1354
     48  NH2        2.9610   -2.9150   23.6070 N.pl3 174  ARG174      0.1354
     49  N         13.0880   -3.0450   18.4100 N.3   258  PRO258     -0.2116
     50  CA        12.1820   -2.1900   19.1800 C.3   258  PRO258      0.1372
     51  C         12.1480   -0.8610   18.4220 C.2   258  PRO258      0.2244
     52  O         13.1860   -0.2170   18.2230 O.2   258  PRO258     -0.2868
     53  CB        12.8660   -2.1020   20.5480 C.3   258  PRO258      0.0268
     54  CG        14.3310   -2.2260   20.2320 C.3   258  PRO258      0.0207
     55  CD        14.3940   -3.2170   19.0890 C.3   258  PRO258      0.0892
     56  N          9.8230    2.6080   18.3550 N.3   260  VAL260     -0.1245
     57  CA         8.7320    3.4760   18.7610 C.3   260  VAL260      0.1561
     58  C          8.2400    4.3300   17.6120 C.2   260  VAL260      0.2260
     59  O          9.0000    5.0960   17.0280 O.2   260  VAL260     -0.2867
     60  CB         9.1700    4.3820   19.9050 C.3   260  VAL260      0.0252
     61  CG1        8.1960    5.5350   20.0470 C.3   260  VAL260      0.0019
     62  CG2        9.2340    3.5650   21.1990 C.3   260  VAL260      0.0019
     63  N          4.8490    6.1300   17.6680 N.3   262  ASN262     -0.1240
     64  CA         3.7810    7.0920   17.9540 C.3   262  ASN262      0.1653
     65  C          4.1770    8.4600   18.5210 C.2   262  ASN262      0.2266
     66  O          3.3040    9.2940   18.8010 O.2   262  ASN262     -0.2867
     67  CB         2.7530    6.4520   18.8870 C.3   262  ASN262      0.1155
     68  CG         3.3760    5.9010   20.1510 C.2   262  ASN262      0.2627
     69  OD1        2.6850    5.3590   21.0030 O.2   262  ASN262     -0.2716
     70  ND2        4.6940    6.0310   20.2760 N.am  262  ASN262     -0.0877
     71  N         11.5220    5.5910   15.2950 N.3   277  PHE277     -0.1227
     72  CA        12.9280    5.4330   15.6620 C.3   277  PHE277      0.1736
     73  C         13.1280    4.0940   16.3620 C.2   277  PHE277      0.2596
     74  O         12.2500    3.6180   17.0860 O.2   277  PHE277     -0.2718
     75  CB        13.3980    6.6010   16.5440 C.3   277  PHE277      0.0547
     76  CG        12.5870    6.8060   17.8000 C.ar  277  PHE277     -0.0202
     77  CD1       12.8230    6.0370   18.9370 C.ar  277  PHE277     -0.0042
     78  CD2       11.6030    7.7860   17.8510 C.ar  277  PHE277     -0.0042
     79  CE1       12.0890    6.2450   20.1160 C.ar  277  PHE277     -0.0003
     80  CE2       10.8630    7.9950   19.0230 C.ar  277  PHE277     -0.0003
     81  CZ        11.1130    7.2190   20.1600 C.ar  277  PHE277     -0.0000
     82  N         14.2870    3.4810   16.1290 N.am  278  SER278     -0.1938
     83  CA        14.5890    2.1750   16.6890 C.3   278  SER278      0.2055
     84  C         16.0320    2.0330   17.1500 C.2   278  SER278      0.2644
     85  O         16.9210    2.7900   16.7410 O.2   278  SER278     -0.2714
     86  CB        14.3090    1.0860   15.6530 C.3   278  SER278      0.2130
     87  OG        15.1890    1.2170   14.5410 O.3   278  SER278     -0.2179
     88  N         16.2420    1.0290   18.0030 N.am  279  GLY279     -0.1939
     89  CA        17.5570    0.7250   18.5420 C.3   279  GLY279      0.2014
     90  C         17.5770   -0.7740   18.7470 C.2   279  GLY279      0.2639
     91  O         17.4430   -1.5390   17.7920 O.2   279  GLY279     -0.2714
     92  N         17.7400   -1.2030   19.9900 N.am  280  TRP280     -0.1959
     93  CA        17.7320   -2.6230   20.3060 C.3   280  TRP280      0.1771
     94  C         17.3480   -2.7450   21.7670 C.2   280  TRP280      0.2620
     95  O         17.5720   -1.8320   22.5690 O.2   280  TRP280     -0.2715
     96  CB        19.1020   -3.2790   20.0250 C.3   280  TRP280      0.0590
     97  CG        20.2470   -2.7090   20.7830 C.ar  280  TRP280      0.0006
     98  CD1       20.5340   -2.9010   22.1040 C.ar  280  TRP280      0.0946
     99  CD2       21.2570   -1.8280   20.2750 C.ar  280  TRP280      0.0152
    100  NE1       21.6600   -2.1970   22.4530 N.ar  280  TRP280     -0.2442
    101  CE2       22.1260   -1.5270   21.3490 C.ar  280  TRP280      0.0810
    102  CE3       21.5140   -1.2600   19.0160 C.ar  280  TRP280      0.0012
    103  CZ2       23.2430   -0.6770   21.2000 C.ar  280  TRP280      0.0191
    104  CZ3       22.6270   -0.4130   18.8720 C.ar  280  TRP280      0.0001
    105  CH2       23.4720   -0.1350   19.9570 C.ar  280  TRP280      0.0015
    106  N         16.7730   -3.8890   22.0970 N.am  281  TYR281     -0.1960
    107  CA        16.2820   -4.1790   23.4330 C.3   281  TYR281      0.1771
    108  C         17.2820   -4.3630   24.5540 C.2   281  TYR281      0.2619
    109  O         18.4430   -4.7130   24.3370 O.2   281  TYR281     -0.2715
    110  CB        15.4290   -5.4530   23.3970 C.3   281  TYR281      0.0574
    111  CG        14.0100   -5.2940   22.8980 C.ar  281  TYR281     -0.0198
    112  CD1       13.5970   -5.8680   21.6940 C.ar  281  TYR281     -0.0009
    113  CD2       13.0580   -4.6580   23.6780 C.ar  281  TYR281     -0.0009
    114  CE1       12.2540   -5.8170   21.2950 C.ar  281  TYR281      0.0417
    115  CE2       11.7340   -4.6000   23.3020 C.ar  281  TYR281      0.0417
    116  CZ        11.3290   -5.1780   22.1170 C.ar  281  TYR281      0.1957
    117  OH         9.9960   -5.1210   21.7810 O.3   281  TYR281     -0.2866
    118  N         16.7790   -4.1280   25.7670 N.am  282  MET282     -0.1977
    119  CA        17.4900   -4.3740   27.0080 C.3   282  MET282      0.1605
    120  C         16.6440   -5.5760   27.4470 C.2   282  MET282      0.2287
    121  O         15.4150   -5.5390   27.3580 O.2   282  MET282     -0.2864
    122  CB        17.3340   -3.2140   28.0010 C.3   282  MET282      0.0413
    123  CG        17.9750   -3.4990   29.3650 C.3   282  MET282      0.0598
    124  SD        18.1040   -2.0670   30.4610 S.3   282  MET282     -0.1393
    125  CE        16.3730   -1.8320   30.9180 C.3   282  MET282      0.0692
    126  N         13.0470   -5.3690   29.2120 N.3   285  GLU285     -0.1245
    127  CA        11.8670   -4.8440   28.5340 C.3   285  GLU285      0.1567
    128  C         10.9010   -5.9370   28.1350 C.2   285  GLU285      0.2260
    129  O          9.6820   -5.8130   28.3200 O.2   285  GLU285     -0.2867
    130  CB        12.2460   -4.0570   27.2760 C.3   285  GLU285      0.0388
    131  CG        13.0970   -2.8120   27.5210 C.3   285  GLU285      0.1160
    132  CD        13.4850   -2.0890   26.2340 C.2   285  GLU285      0.3649
    133  OE1       12.6730   -1.3060   25.6900 O.co2 285  GLU285     -0.2457
    134  OE2       14.6110   -2.3170   25.7600 O.co2 285  GLU285     -0.2457
    135  N          8.6640   -6.9390   31.6280 N.3   289  ARG289     -0.1231
    136  CA         7.4480   -6.2220   31.2880 C.3   289  ARG289      0.1694
    137  C          6.4950   -6.8860   30.2740 C.2   289  ARG289      0.2592
    138  O          5.3190   -7.0850   30.5660 O.2   289  ARG289     -0.2718
    139  CB         7.8270   -4.8030   30.8320 C.3   289  ARG289      0.0321
    140  CG         8.5870   -3.9820   31.9040 C.3   289  ARG289      0.0489
    141  CD         7.8150   -3.8610   33.2320 C.3   289  ARG289      0.2205
    142  NE         6.5160   -3.2010   33.0750 N.pl3 289  ARG289     -0.0865
    143  CZ         6.3610   -1.9180   32.7540 C.cat 289  ARG289      0.5346
    144  NH1        7.4240   -1.1610   32.5630 N.pl3 289  ARG289      0.1354
    145  NH2        5.1480   -1.3910   32.6060 N.pl3 289  ARG289      0.1354
    146  N          6.9920   -7.2340   29.0910 N.am  290  ASP290     -0.1974
    147  CA         6.1520   -7.8480   28.0660 C.3   290  ASP290      0.1709
    148  C          5.6130   -9.2150   28.4410 C.2   290  ASP290      0.2293
    149  O          4.4400   -9.5220   28.1840 O.2   290  ASP290     -0.2864
    150  CB         6.9200   -7.9550   26.7480 C.3   290  ASP290      0.1436
    151  CG         7.2680   -6.6070   26.1860 C.2   290  ASP290      0.3671
    152  OD1        6.3630   -5.7380   26.1700 O.co2 290  ASP290     -0.2456
    153  OD2        8.4320   -6.4160   25.7670 O.co2 290  ASP290     -0.2456
    154  N         12.1190    5.7510   35.4730 N.3   371  TRP371     -0.1241
    155  CA        12.2240    4.9610   34.2450 C.3   371  TRP371      0.1605
    156  C         13.5820    4.3310   34.0090 C.2   371  TRP371      0.2264
    157  O         13.6690    3.3040   33.3320 O.2   371  TRP371     -0.2867
    158  CB        11.9020    5.8080   33.0100 C.3   371  TRP371      0.0550
    159  CG        10.4560    5.9260   32.7370 C.ar  371  TRP371      0.0003
    160  CD1        9.4900    6.4060   33.5850 C.ar  371  TRP371      0.0946
    161  CD2        9.7870    5.5580   31.5260 C.ar  371  TRP371      0.0152
    162  NE1        8.2650    6.3570   32.9690 N.ar  371  TRP371     -0.2442
    163  CE2        8.4170    5.8420   31.7060 C.ar  371  TRP371      0.0810
    164  CE3       10.2140    5.0190   30.3060 C.ar  371  TRP371      0.0012
    165  CZ2        7.4650    5.6040   30.7070 C.ar  371  TRP371      0.0191
    166  CZ3        9.2750    4.7830   29.3110 C.ar  371  TRP371      0.0001
    167  CH2        7.9090    5.0760   29.5190 C.ar  371  TRP371      0.0015
    168  N          5.0640   13.0080   23.5780 N.3   399  TYR399     -0.1241
    169  CA         3.9550   12.1020   23.3640 C.3   399  TYR399      0.1605
    170  C          2.8940   12.8570   22.5720 C.2   399  TYR399      0.2264
    171  O          2.9370   14.0830   22.4510 O.2   399  TYR399     -0.2867
    172  CB         3.3650   11.6880   24.6940 C.3   399  TYR399      0.0534
    173  CG         4.2540   10.7860   25.4850 C.ar  399  TYR399     -0.0201
    174  CD1        4.7370   11.1780   26.7350 C.ar  399  TYR399     -0.0009
    175  CD2        4.5670    9.4980   25.0230 C.ar  399  TYR399     -0.0009
    176  CE1        5.5060   10.3010   27.5180 C.ar  399  TYR399      0.0417
    177  CE2        5.3330    8.6200   25.7960 C.ar  399  TYR399      0.0417
    178  CZ         5.7920    9.0370   27.0380 C.ar  399  TYR399      0.1957
    179  OH         6.5400    8.2030   27.8090 O.3   399  TYR399     -0.2866
@<TRIPOS>BOND
     1    87    86    1
     2    71    72    1
     3    32    31    2
     4    86    83    1
     5    72    73    1
     6    72    75    1
     7    31    30    1
     8    82    73   am
     9    82    83    1
    10    41    40    2
    11    73    74    2
    12    38    39    1
    13    75    76    1
    14    83    84    1
    15    85    84    2
    16    59    58    2
    17    84    88   am
    18    40    39    1
    19    30    29    1
    20    30    33    1
    21    58    57    1
    22    39    42    1
    23    63    64    1
    24    23    24    1
    25    91    90    2
    26    76    78   ar
    27    76    77   ar
    28    78    80   ar
    29    29    25   am
    30    64    65    1
    31    64    67    1
    32    88    89    1
    33    52    51    2
    34    42    43    1
    35    56    57    1
    36    49    55    1
    37    49    50    1
    38    33    34    1
    39    51    50    1
    40    25    26    2
    41    25    24    1
    42    65    66    2
    43    89    90    1
    44    90    92   am
    45    24    27    1
    46    57    60    1
    47   104   102   ar
    48   104   105   ar
    49    67    68    1
    50    77    79   ar
    51    43    44    1
    52   102    99   ar
    53    80    81   ar
    54    55    54    1
    55    50    53    1
    56    34    35    1
    57    60    61    1
    58    60    62    1
    59   105   103   ar
    60    44    45    1
    61    92    93    1
    62    96    93    1
    63    96    97    1
    64    27    28    1
    65    79    81   ar
    66    68    70   am
    67    68    69    2
    68    54    53    1
    69    99    97   ar
    70    99   101   ar
    71    93    94    1
    72    36    35    2
    73    97    98   ar
    74    35    37   am
    75   103   101   ar
    76   114   112   ar
    77   114   116   ar
    78    45    46    2
    79   101   100   ar
    80   112   111   ar
    81    94   106   am
    82    94    95    2
    83   117   116    1
    84   106   107    1
    85    98   100   ar
    86   116   115   ar
    87    47    46    1
    88    46    48    1
    89   171   170    2
    90   170   169    1
    91   111   110    1
    92   111   113   ar
    93   115   113   ar
    94   169   168    1
    95   169   172    1
    96   110   107    1
    97   107   108    1
    98   109   108    2
    99   108   118   am
   100   172   173    1
   101   175   173   ar
   102   175   177   ar
   103    22    21    1
   104   173   174   ar
   105   133   132   ar
   106   134   132   ar
   107   118   119    1
   108   153   151   ar
   109   177   178   ar
   110   152   151   ar
   111   151   150    1
   112   132   131    1
   113    21    18    1
   114   174   176   ar
   115   150   147    1
   116   119   120    1
   117   119   122    1
   118   178   176   ar
   119   178   179    1
   120   130   131    1
   121   130   127    1
   122   121   120    2
   123    18    17    1
   124    18    19    1
   125   122   123    1
   126   147   148    1
   127   147   146    1
   128   128   129    2
   129   128   127    1
   130   149   148    2
   131    19    20    2
   132   127   126    1
   133    16    14    1
   134   146   137   am
   135    15    14    1
   136   166   167   ar
   137   166   164   ar
   138   123   124    1
   139   167   165   ar
   140    14    13    1
   141   137   138    2
   142   137   136    1
   143   164   161   ar
   144    13    10    1
   145   124   125    1
   146   165   163   ar
   147   139   136    1
   148   139   140    1
   149   136   135    1
   150     4     3    2
   151    10    11    1
   152    10     9    1
   153   161   163   ar
   154   161   159   ar
   155     8     7    1
   156   163   162   ar
   157   140   141    1
   158    12    11    2
   159     3     9   am
   160     3     2    1
   161     7     6    1
   162   144   143    1
   163   145   143    1
   164   159   158    1
   165   159   160   ar
   166   143   142    2
   167     5     2    1
   168     5     6    1
   169   162   160   ar
   170   158   155    1
   171   142   141    1
   172     2     1    1
   173   157   156    2
   174   156   155    1
   175   155   154    1
