@<TRIPOS>MOLECULE
tmp/3b3xB00.pdb
 82 74 0 0 0
SMALL
GASTEIGER

@<TRIPOS>ATOM
      1  N         37.7590   72.2040   27.0240 N.3    39  SER39      -0.1217
      2  CA        36.3500   72.1190   26.6790 C.3    39  SER39       0.1889
      3  C         36.1160   71.5590   25.2880 C.2    39  SER39       0.2288
      4  O         34.9620   71.3700   24.8680 O.2    39  SER39      -0.2866
      5  CB        35.6720   73.4670   26.8460 C.3    39  SER39       0.2089
      6  OG        35.3880   73.7130   28.2120 O.3    39  SER39      -0.2183
      7  N         30.4870   77.2750   36.3530 N.3    72  TYR72      -0.1241
      8  CA        30.2350   78.1120   35.1850 C.3    72  TYR72       0.1605
      9  C         29.0860   77.4330   34.4580 C.2    72  TYR72       0.2264
     10  O         29.2980   76.4360   33.7460 O.2    72  TYR72      -0.2867
     11  CB        31.4790   78.1940   34.2820 C.3    72  TYR72       0.0534
     12  CG        31.2630   78.9050   32.9570 C.ar   72  TYR72      -0.0201
     13  CD1       31.5350   80.2590   32.8200 C.ar   72  TYR72      -0.0009
     14  CD2       30.7940   78.2080   31.8330 C.ar   72  TYR72      -0.0009
     15  CE1       31.3260   80.9130   31.6100 C.ar   72  TYR72       0.0417
     16  CE2       30.5910   78.8510   30.6120 C.ar   72  TYR72       0.0417
     17  CZ        30.8580   80.2060   30.5090 C.ar   72  TYR72       0.1957
     18  OH        30.6540   80.8430   29.3100 O.3    72  TYR72      -0.2866
     19  N         29.8540   76.4880   26.0230 N.3    97  SER97      -0.1217
     20  CA        30.8720   75.8050   26.8460 C.3    97  SER97       0.1889
     21  C         30.3550   75.5830   28.2690 C.2    97  SER97       0.2288
     22  O         31.0740   75.7920   29.2360 O.2    97  SER97      -0.2866
     23  CB        32.2170   76.5560   26.8230 C.3    97  SER97       0.2089
     24  OG        33.2860   75.8200   27.4320 O.3    97  SER97      -0.2183
     25  N         29.7470   73.9750   31.4890 N.3    99  ASN99      -0.1240
     26  CA        30.4240   72.8940   32.2180 C.3    99  ASN99       0.1653
     27  C         29.5060   71.7850   32.7650 C.2    99  ASN99       0.2266
     28  O         29.8610   70.6070   32.7540 O.2    99  ASN99      -0.2867
     29  CB        31.3380   73.4660   33.2790 C.3    99  ASN99       0.1155
     30  CG        32.6640   73.8830   32.7090 C.2    99  ASN99       0.2627
     31  OD1       33.0310   73.4690   31.6140 O.2    99  ASN99      -0.2716
     32  ND2       33.3990   74.7050   33.4430 N.am   99  ASN99      -0.0877
     33  N         40.5100   70.4370   33.7290 N.3   137  ASN137     -0.1240
     34  CA        41.4610   71.4530   33.2330 C.3   137  ASN137      0.1653
     35  C         42.7550   71.4170   34.0810 C.2   137  ASN137      0.2266
     36  O         43.8100   71.8870   33.6310 O.2   137  ASN137     -0.2867
     37  CB        40.8270   72.8580   33.1570 C.3   137  ASN137      0.1155
     38  CG        39.4310   72.8630   32.4560 C.2   137  ASN137      0.2627
     39  OD1       39.3110   72.7290   31.2230 O.2   137  ASN137     -0.2716
     40  ND2       38.3870   73.0240   33.2480 N.am  137  ASN137     -0.0877
     41  N         31.1700   81.1280   21.4010 N.3   183  THR183     -0.1218
     42  CA        32.3980   81.2850   22.1880 C.3   183  THR183      0.1862
     43  C         33.7130   81.5180   21.4080 C.2   183  THR183      0.2287
     44  O         34.7440   81.8320   21.9900 O.2   183  THR183     -0.2866
     45  CB        32.5960   80.0860   23.2040 C.3   183  THR183      0.1770
     46  OG1       32.7010   78.8260   22.4990 O.3   183  THR183     -0.2211
     47  CG2       31.4760   80.0280   24.2340 C.3   183  THR183      0.0375
     48  N         35.7090   75.5290   21.2730 N.3   202  THR202     -0.1218
     49  CA        36.8560   76.2060   21.8350 C.3   202  THR202      0.1862
     50  C         37.1470   75.6080   23.1710 C.2   202  THR202      0.2287
     51  O         36.2790   74.9570   23.7530 O.2   202  THR202     -0.2866
     52  CB        36.4860   77.6070   22.2360 C.3   202  THR202      0.1770
     53  OG1       35.3830   77.5280   23.1680 O.3   202  THR202     -0.2211
     54  CG2       36.1350   78.4590   21.0270 C.3   202  THR202      0.0375
     55  N         39.6200   76.5170   27.0590 N.3   204  ALA204     -0.1245
     56  CA        40.5840   77.1600   27.9230 C.3   204  ALA204      0.1562
     57  C         40.8290   76.2640   29.1430 C.2   204  ALA204      0.2260
     58  O         39.8810   75.6480   29.6730 O.2   204  ALA204     -0.2867
     59  CB        40.0780   78.5050   28.3610 C.3   204  ALA204      0.0290
     60  N         44.5280   77.5120   25.3620 N.3   210  ARG210     -0.1245
     61  CA        43.4630   78.1090   24.6010 C.3   210  ARG210      0.1563
     62  C         43.4850   77.2890   23.3720 C.2   210  ARG210      0.2260
     63  O         44.5250   77.2430   22.7050 O.2   210  ARG210     -0.2867
     64  CB        43.7690   79.5760   24.2180 C.3   210  ARG210      0.0307
     65  CG        42.5570   80.3400   23.6720 C.3   210  ARG210      0.0489
     66  CD        41.3850   80.1100   24.5820 C.3   210  ARG210      0.2205
     67  NE        40.2660   80.9500   24.2250 N.pl3 210  ARG210     -0.0865
     68  CZ        38.9860   80.6240   24.3960 C.cat 210  ARG210      0.5346
     69  NH1       38.6440   79.4390   24.9190 N.pl3 210  ARG210      0.1354
     70  NH2       38.0360   81.4920   24.0210 N.pl3 210  ARG210      0.1354
     71  N         46.0390   83.6470   28.2710 N.3   239  TYR239     -0.1241
     72  CA        46.0830   83.3590   26.8320 C.3   239  TYR239      0.1605
     73  C         45.7690   84.5640   25.9360 C.2   239  TYR239      0.2264
     74  O         45.0330   85.4720   26.3380 O.2   239  TYR239     -0.2867
     75  CB        45.1580   82.1650   26.4770 C.3   239  TYR239      0.0534
     76  CG        43.6770   82.3600   26.8100 C.ar  239  TYR239     -0.0201
     77  CD1       42.8630   83.1110   26.0090 C.ar  239  TYR239     -0.0009
     78  CD2       43.1220   81.7860   27.9310 C.ar  239  TYR239     -0.0009
     79  CE1       41.5290   83.2670   26.3000 C.ar  239  TYR239      0.0417
     80  CE2       41.8040   81.9430   28.2350 C.ar  239  TYR239      0.0417
     81  CZ        41.0040   82.6860   27.4190 C.ar  239  TYR239      0.1957
     82  OH        39.6710   82.8490   27.7150 O.3   239  TYR239     -0.2866
@<TRIPOS>BOND
     1    54    52    1
     2    48    49    1
     3    41    42    1
     4    43    44    2
     5    43    42    1
     6    49    52    1
     7    49    50    1
     8    42    45    1
     9    52    53    1
    10    46    45    1
    11    63    62    2
    12    50    51    2
    13    45    47    1
    14    62    61    1
    15    65    64    1
    16    65    66    1
    17    70    68    1
    18    64    61    1
    19    67    68    2
    20    67    66    1
    21    68    69    1
    22    61    60    1
    23     4     3    2
    24     3     2    1
    25    73    74    2
    26    73    72    1
    27    77    79   ar
    28    77    76   ar
    29    19    20    1
    30    79    81   ar
    31    75    76    1
    32    75    72    1
    33     2     5    1
    34     2     1    1
    35    76    78   ar
    36    23    20    1
    37    23    24    1
    38    72    71    1
    39    20    21    1
    40     5     6    1
    41    55    56    1
    42    81    82    1
    43    81    80   ar
    44    56    59    1
    45    56    57    1
    46    78    80   ar
    47    21    22    2
    48    57    58    2
    49    18    17    1
    50    17    16   ar
    51    17    15   ar
    52    16    14   ar
    53    39    38    2
    54    25    26    1
    55    15    13   ar
    56    31    30    2
    57    14    12   ar
    58    26    27    1
    59    26    29    1
    60    38    37    1
    61    38    40   am
    62    30    29    1
    63    30    32   am
    64    28    27    2
    65    13    12   ar
    66    12    11    1
    67    37    34    1
    68    34    33    1
    69    34    35    1
    70    36    35    2
    71    10     9    2
    72    11     8    1
    73     9     8    1
    74     8     7    1
