@<TRIPOS>MOLECULE
tmp/3b42B01.pdb
 111 108 0 0 0
SMALL
GASTEIGER

@<TRIPOS>ATOM
      1  N         45.8230   40.5230   32.3960 N.3    50  VAL50      -0.1231
      2  CA        45.5620   41.7090   31.5820 C.3    50  VAL50       0.1692
      3  C         46.8220   42.0820   30.7890 C.2    50  VAL50       0.2592
      4  O         47.9330   42.0830   31.3310 O.2    50  VAL50      -0.2718
      5  CB        45.1250   42.9070   32.4730 C.3    50  VAL50       0.0266
      6  CG1       44.9900   44.1790   31.6390 C.3    50  VAL50       0.0020
      7  CG2       43.7920   42.5890   33.1460 C.3    50  VAL50       0.0020
      8  N         46.6340   42.3920   29.5050 N.am   51  PHE51      -0.1962
      9  CA        47.7310   42.7370   28.6020 C.3    51  PHE51       0.1771
     10  C         47.5300   44.1060   27.9430 C.2    51  PHE51       0.2619
     11  O         46.3970   44.5170   27.6970 O.2    51  PHE51      -0.2715
     12  CB        47.8480   41.6720   27.4990 C.3    51  PHE51       0.0574
     13  CG        47.9790   40.2620   28.0160 C.ar   51  PHE51      -0.0200
     14  CD1       46.9040   39.6270   28.6330 C.ar   51  PHE51      -0.0042
     15  CD2       49.1730   39.5640   27.8710 C.ar   51  PHE51      -0.0042
     16  CE1       47.0160   38.3130   29.0990 C.ar   51  PHE51      -0.0003
     17  CE2       49.2990   38.2490   28.3310 C.ar   51  PHE51      -0.0003
     18  CZ        48.2160   37.6210   28.9470 C.ar   51  PHE51      -0.0000
     19  N         48.6310   44.8000   27.6460 N.am   52  ASP52      -0.1971
     20  CA        48.5450   46.1120   27.0110 C.3    52  ASP52       0.1709
     21  C         48.3530   45.9880   25.4980 C.2    52  ASP52       0.2293
     22  O         48.2220   44.8830   24.9730 O.2    52  ASP52      -0.2864
     23  CB        49.7910   46.9690   27.3280 C.3    52  ASP52       0.1436
     24  CG        51.0930   46.3580   26.8120 C.2    52  ASP52       0.3671
     25  OD1       51.0640   45.5640   25.8490 O.co2  52  ASP52      -0.2456
     26  OD2       52.1630   46.6940   27.3690 O.co2  52  ASP52      -0.2456
     27  N         50.5440   42.9340   31.8210 N.3    58  VAL58      -0.1245
     28  CA        50.8160   44.0220   32.7510 C.3    58  VAL58       0.1561
     29  C         50.4630   43.5910   34.1680 C.2    58  VAL58       0.2260
     30  O         51.0440   44.0820   35.1400 O.2    58  VAL58      -0.2867
     31  CB        50.0060   45.3000   32.3900 C.3    58  VAL58       0.0252
     32  CG1       50.3400   45.7420   30.9810 C.3    58  VAL58       0.0019
     33  CG2       48.5230   45.0390   32.5190 C.3    58  VAL58       0.0019
     34  N         40.0720   44.5620   24.6290 N.3    98  PHE98      -0.1228
     35  CA        39.3490   45.6480   25.2910 C.3    98  PHE98       0.1721
     36  C         38.9630   46.7150   24.2740 C.2    98  PHE98       0.2437
     37  O         39.8100   47.4740   23.8160 O.2    98  PHE98      -0.2733
     38  CB        40.2100   46.3450   26.3530 C.3    98  PHE98       0.0547
     39  CG        40.3550   45.5830   27.6360 C.ar   98  PHE98      -0.0202
     40  CD1       41.5100   44.8530   27.9020 C.ar   98  PHE98      -0.0042
     41  CD2       39.3580   45.6390   28.6060 C.ar   98  PHE98      -0.0042
     42  CE1       41.6700   44.1980   29.1200 C.ar   98  PHE98      -0.0003
     43  CE2       39.5110   44.9850   29.8270 C.ar   98  PHE98      -0.0003
     44  CZ        40.6640   44.2670   30.0840 C.ar   98  PHE98      -0.0000
     45  N         37.6850   46.7840   23.8980 N.am   99  PRO99      -0.2729
     46  CA        37.3300   47.8210   22.9290 C.3    99  PRO99       0.1401
     47  C         37.4540   49.2030   23.5760 C.2    99  PRO99       0.2269
     48  O         37.1120   49.3780   24.7480 O.2    99  PRO99      -0.2865
     49  CB        35.8930   47.4690   22.5590 C.3    99  PRO99       0.0296
     50  CG        35.3710   46.8020   23.8130 C.3    99  PRO99       0.0237
     51  CD        36.5290   45.9320   24.2230 C.3    99  PRO99       0.0939
     52  N         35.8910   51.9350   24.1750 N.3   101  GLU101     -0.1245
     53  CA        34.5570   52.5270   24.2130 C.3   101  GLU101      0.1567
     54  C         34.6130   54.0320   24.4630 C.2   101  GLU101      0.2260
     55  O         35.6550   54.5780   24.8350 O.2   101  GLU101     -0.2867
     56  CB        33.7180   51.8470   25.2970 C.3   101  GLU101      0.0388
     57  CG        33.8020   50.3250   25.2630 C.3   101  GLU101      0.1160
     58  CD        32.9670   49.6640   26.3390 C.2   101  GLU101      0.3649
     59  OE1       33.0260   50.1130   27.5020 O.co2 101  GLU101     -0.2457
     60  OE2       32.2570   48.6860   26.0260 O.co2 101  GLU101     -0.2457
     61  N         33.4080   55.9240   26.8690 N.3   103  ARG103     -0.1231
     62  CA        33.8050   56.2930   28.2250 C.3   103  ARG103      0.1694
     63  C         35.3180   56.2030   28.4150 C.2   103  ARG103      0.2592
     64  O         35.9120   57.0120   29.1270 O.2   103  ARG103     -0.2718
     65  CB        33.0900   55.4070   29.2550 C.3   103  ARG103      0.0321
     66  CG        33.3030   53.9040   29.0740 C.3   103  ARG103      0.0489
     67  CD        32.6020   53.0810   30.1650 C.3   103  ARG103      0.2205
     68  NE        32.6970   51.6490   29.8830 N.pl3 103  ARG103     -0.0865
     69  CZ        32.3960   50.6810   30.7430 C.cat 103  ARG103      0.5346
     70  NH1       32.5240   49.4100   30.3790 N.pl3 103  ARG103      0.1354
     71  NH2       31.9710   50.9740   31.9630 N.pl3 103  ARG103      0.1354
     72  N         35.9360   55.2220   27.7640 N.am  104  CYS104     -0.1970
     73  CA        37.3780   55.0110   27.8580 C.3   104  CYS104      0.1712
     74  C         38.1680   56.1260   27.1840 C.2   104  CYS104      0.2296
     75  O         39.2820   56.4600   27.5950 O.2   104  CYS104     -0.2864
     76  CB        37.7510   53.6940   27.1860 C.3   104  CYS104      0.0983
     77  SG        36.7430   52.2720   27.6920 S.3   104  CYS104     -0.0798
     78  N         37.8400   59.1710   27.2710 N.3   106  SER106     -0.1202
     79  CA        38.0430   60.3900   28.0370 C.3   106  SER106      0.2020
     80  C         39.5280   60.4980   28.4010 C.2   106  SER106      0.2619
     81  O         40.0170   61.5810   28.7100 O.2   106  SER106     -0.2717
     82  CB        37.1640   60.3950   29.2940 C.3   106  SER106      0.2103
     83  OG        37.3430   59.2240   30.0670 O.3   106  SER106     -0.2182
     84  N         40.2430   59.3740   28.3390 N.am  107  CYS107     -0.1955
     85  CA        41.6770   59.3430   28.6370 C.3   107  CYS107      0.1843
     86  C         42.4850   58.7510   27.4840 C.2   107  CYS107      0.2625
     87  O         43.5850   59.2110   27.1900 O.2   107  CYS107     -0.2714
     88  CB        41.9580   58.5160   29.8890 C.3   107  CYS107      0.0997
     89  SG        41.2160   59.1520   31.4250 S.3   107  CYS107     -0.0797
     90  N         41.9410   57.7160   26.8510 N.am  108  HIS108     -0.1973
     91  CA        42.6030   57.0460   25.7260 C.3   108  HIS108      0.1656
     92  C         42.2090   57.7140   24.4100 C.2   108  HIS108      0.2291
     93  O         41.0470   57.6550   24.0170 O.2   108  HIS108     -0.2864
     94  CB        42.1760   55.5740   25.6640 C.3   108  HIS108      0.0771
     95  CG        42.6640   54.7440   26.8100 C.ar  108  HIS108      0.0820
     96  ND1       43.9200   54.1820   26.8820 N.ar  108  HIS108     -0.2267
     97  CD2       42.0340   54.3810   27.9570 C.ar  108  HIS108      0.1154
     98  CE1       44.0060   53.5090   28.0440 C.ar  108  HIS108      0.1986
     99  NE2       42.8840   53.6010   28.7330 N.ar  108  HIS108     -0.2212
    100  N         42.4110   48.6210   23.3860 N.3   115  LEU115     -0.1231
    101  CA        43.4330   49.0740   24.3190 C.3   115  LEU115      0.1693
    102  C         44.2960   47.9830   24.9340 C.2   115  LEU115      0.2592
    103  O         45.2030   48.2650   25.7160 O.2   115  LEU115     -0.2718
    104  CB        42.7540   49.8890   25.4230 C.3   115  LEU115      0.0284
    105  CG        41.8590   51.0080   24.8730 C.3   115  LEU115      0.0019
    106  CD1       41.0430   51.6520   25.9970 C.3   115  LEU115      0.0001
    107  CD2       42.7270   52.0460   24.1830 C.3   115  LEU115      0.0001
    108  N         44.0250   46.7400   24.5680 N.am  116  GLY116     -0.1957
    109  CA        44.7850   45.6450   25.1260 C.3   116  GLY116      0.1869
    110  C         43.9130   44.4160   25.1690 C.2   116  GLY116      0.2309
    111  O         42.9350   44.3140   24.4280 O.2   116  GLY116     -0.2863
@<TRIPOS>BOND
     1    49    46    1
     2    49    50    1
     3    46    47    1
     4    46    45    1
     5   100   101    1
     6    47    48    2
     7    50    51    1
     8    37    36    2
     9    45    51    1
    10    45    36   am
    11    93    92    2
    12    52    53    1
    13   107   105    1
    14    53    54    1
    15    53    56    1
    16    36    35    1
    17   101   102    1
    18   101   104    1
    19    92    91    1
    20   111   110    2
    21    54    55    2
    22   108   102   am
    23   108   109    1
    24    34    35    1
    25   105   104    1
    26   105   106    1
    27   102   103    2
    28    22    21    2
    29   109   110    1
    30    57    56    1
    31    57    58    1
    32    35    38    1
    33    21    20    1
    34    94    91    1
    35    94    95    1
    36    91    90    1
    37    25    24   ar
    38    60    58   ar
    39    58    59   ar
    40    38    39    1
    41    95    96   ar
    42    95    97   ar
    43    24    23    1
    44    24    26   ar
    45    90    86   am
    46    61    62    1
    47    96    98   ar
    48    20    23    1
    49    20    19    1
    50    74    75    2
    51    74    73    1
    52    76    77    1
    53    76    73    1
    54    87    86    2
    55    78    79    1
    56    86    85    1
    57    12    13    1
    58    12     9    1
    59    39    40   ar
    60    39    41   ar
    61    19    10   am
    62    11    10    2
    63    72    73    1
    64    72    63   am
    65    15    13   ar
    66    15    17   ar
    67    40    42   ar
    68    10     9    1
    69    97    99   ar
    70    13    14   ar
    71    79    80    1
    72    79    82    1
    73    98    99   ar
    74    62    63    1
    75    62    65    1
    76    17    18   ar
    77    84    80   am
    78    84    85    1
    79    80    81    2
    80    63    64    2
    81     9     8    1
    82    41    43   ar
    83    14    16   ar
    84    85    88    1
    85    18    16   ar
    86    66    65    1
    87    66    67    1
    88    42    44   ar
    89    82    83    1
    90     8     3   am
    91    43    44   ar
    92    68    67    1
    93    68    69    2
    94    88    89    1
    95    70    69    1
    96    69    71    1
    97     3     4    2
    98     3     2    1
    99    32    31    1
   100     2     1    1
   101     2     5    1
   102     6     5    1
   103    27    28    1
   104    31    33    1
   105    31    28    1
   106     5     7    1
   107    28    29    1
   108    29    30    2
