@<TRIPOS>MOLECULE
tmp/3b44A10.pdb
 77 75 0 0 0
SMALL
GASTEIGER

@<TRIPOS>ATOM
      1  N         -1.1600   34.6620   32.5500 N.3    98  VAL98      -0.1231
      2  CA        -2.3590   34.9850   31.7900 C.3    98  VAL98       0.1692
      3  C         -2.0610   35.9530   30.6530 C.2    98  VAL98       0.2591
      4  O         -2.6060   35.8260   29.5560 O.2    98  VAL98      -0.2718
      5  CB        -3.4430   35.5810   32.7150 C.3    98  VAL98       0.0266
      6  CG1       -4.6650   36.0040   31.9050 C.3    98  VAL98       0.0020
      7  CG2       -3.8400   34.5480   33.7520 C.3    98  VAL98       0.0020
      8  N         -1.1900   36.9190   30.9150 N.am   99  GLN99      -0.1979
      9  CA        -0.8170   37.9020   29.9010 C.3    99  GLN99       0.1601
     10  C         -0.1680   37.1910   28.7180 C.2    99  GLN99       0.2287
     11  O         -0.5360   37.3940   27.5600 O.2    99  GLN99      -0.2864
     12  CB         0.1680   38.9100   30.4980 C.3    99  GLN99       0.0394
     13  CG         0.6560   39.9830   29.5280 C.3    99  GLN99       0.0908
     14  CD        -0.4710   40.8680   29.0310 C.2    99  GLN99       0.2608
     15  OE1       -1.4680   41.0530   29.7250 O.2    99  GLN99      -0.2717
     16  NE2       -0.3110   41.4330   27.8370 N.am   99  GLN99      -0.0878
     17  N         -2.6300   34.9160   26.4490 N.3   102  PHE102     -0.1227
     18  CA        -3.4840   35.5640   25.4560 C.3   102  PHE102      0.1736
     19  C         -2.8200   36.6260   24.5890 C.2   102  PHE102      0.2596
     20  O         -3.2890   36.8940   23.4810 O.2   102  PHE102     -0.2718
     21  CB        -4.7030   36.2030   26.1320 C.3   102  PHE102      0.0547
     22  CG        -5.5760   35.2240   26.8520 C.ar  102  PHE102     -0.0202
     23  CD1       -5.5060   35.1040   28.2320 C.ar  102  PHE102     -0.0042
     24  CD2       -6.4610   34.4090   26.1500 C.ar  102  PHE102     -0.0042
     25  CE1       -6.3020   34.1890   28.9080 C.ar  102  PHE102     -0.0003
     26  CE2       -7.2640   33.4860   26.8170 C.ar  102  PHE102     -0.0003
     27  CZ        -7.1830   33.3780   28.2000 C.ar  102  PHE102     -0.0000
     28  N         -1.7340   37.2210   25.0710 N.am  103  SER103     -0.1952
     29  CA        -1.0950   38.2980   24.3260 C.3   103  SER103      0.1924
     30  C          0.3870   38.1790   23.9780 C.2   103  SER103      0.2314
     31  O          0.9470   39.0900   23.3700 O.2   103  SER103     -0.2863
     32  CB        -1.3180   39.6090   25.0760 C.3   103  SER103      0.2116
     33  OG        -2.6670   39.7130   25.5020 O.3   103  SER103     -0.2180
     34  N         -8.3140   49.7250   31.9310 N.3   151  TRP151     -0.1241
     35  CA        -9.3560   48.8710   31.3720 C.3   151  TRP151      0.1605
     36  C         -9.8460   49.2940   29.9950 C.2   151  TRP151      0.2264
     37  O        -10.0430   48.4510   29.1160 O.2   151  TRP151     -0.2867
     38  CB       -10.5410   48.7870   32.3420 C.3   151  TRP151      0.0550
     39  CG       -11.4450   47.6190   32.0760 C.ar  151  TRP151      0.0003
     40  CD1      -12.4520   47.5440   31.1530 C.ar  151  TRP151      0.0946
     41  CD2      -11.3890   46.3390   32.7140 C.ar  151  TRP151      0.0152
     42  NE1      -13.0260   46.2930   31.1790 N.ar  151  TRP151     -0.2442
     43  CE2      -12.3910   45.5340   32.1270 C.ar  151  TRP151      0.0810
     44  CE3      -10.5860   45.7920   33.7240 C.ar  151  TRP151      0.0012
     45  CZ2      -12.6120   44.2090   32.5180 C.ar  151  TRP151      0.0191
     46  CZ3      -10.8060   44.4750   34.1130 C.ar  151  TRP151      0.0001
     47  CH2      -11.8120   43.7000   33.5090 C.ar  151  TRP151      0.0015
     48  N         -2.8920   43.3100   29.7900 N.3   160  ALA160     -0.1231
     49  CA        -4.2970   43.2980   29.3910 C.3   160  ALA160      0.1694
     50  C         -5.2510   43.1260   30.5730 C.2   160  ALA160      0.2592
     51  O         -4.8360   42.7610   31.6750 O.2   160  ALA160     -0.2718
     52  CB        -4.5280   42.1920   28.3700 C.3   160  ALA160      0.0304
     53  N         -6.5370   43.3750   30.3380 N.am  161  ASN161     -0.1960
     54  CA        -7.5310   43.2700   31.4000 C.3   161  ASN161      0.1819
     55  C         -7.5930   41.8960   32.0700 C.2   161  ASN161      0.2622
     56  O         -7.7350   41.8040   33.2860 O.2   161  ASN161     -0.2715
     57  CB        -8.9170   43.6570   30.8660 C.3   161  ASN161      0.1195
     58  CG        -8.9770   45.1040   30.3890 C.2   161  ASN161      0.2630
     59  OD1       -8.1500   45.9320   30.7700 O.2   161  ASN161     -0.2716
     60  ND2       -9.9690   45.4130   29.5610 N.am  161  ASN161     -0.0877
     61  N         -7.4900   40.8320   31.2780 N.am  162  GLY162     -0.1940
     62  CA        -7.5390   39.4940   31.8440 C.3   162  GLY162      0.2014
     63  C         -6.4040   39.2310   32.8190 C.2   162  GLY162      0.2638
     64  O         -6.5990   38.6080   33.8680 O.2   162  GLY162     -0.2714
     65  N         -5.2110   39.7020   32.4720 N.am  163  ALA163     -0.1977
     66  CA        -4.0390   39.5300   33.3240 C.3   163  ALA163      0.1597
     67  C         -4.2300   40.2870   34.6340 C.2   163  ALA163      0.2287
     68  O         -3.8690   39.8060   35.7100 O.2   163  ALA163     -0.2864
     69  CB        -2.7970   40.0330   32.6040 C.3   163  ALA163      0.0319
     70  N         -7.0940   41.0000   36.0460 N.3   165  ILE165     -0.1245
     71  CA        -8.1160   40.3230   36.8390 C.3   165  ILE165      0.1561
     72  C         -7.4700   39.1620   37.5860 C.2   165  ILE165      0.2260
     73  O         -7.8190   38.8740   38.7320 O.2   165  ILE165     -0.2867
     74  CB        -9.2600   39.8010   35.9410 C.3   165  ILE165      0.0252
     75  CG1      -10.1000   40.9860   35.4690 C.3   165  ILE165      0.0019
     76  CG2      -10.1210   38.7790   36.6950 C.3   165  ILE165      0.0019
     77  CD1      -11.3170   40.5880   34.6870 C.3   165  ILE165      0.0001
@<TRIPOS>BOND
     1    31    30    2
     2    20    19    2
     3    30    29    1
     4    29    28    1
     5    29    32    1
     6    19    28   am
     7    19    18    1
     8    32    33    1
     9    18    21    1
    10    18    17    1
    11    21    22    1
    12    24    26   ar
    13    24    22   ar
    14    26    27   ar
    15    22    23   ar
    16    11    10    2
    17    16    14   am
    18    27    25   ar
    19    23    25   ar
    20    52    49    1
    21    10     9    1
    22    14    13    1
    23    14    15    2
    24    37    36    2
    25    49    48    1
    26    49    50    1
    27    13    12    1
    28     4     3    2
    29    60    58   am
    30     9    12    1
    31     9     8    1
    32    36    35    1
    33    53    50   am
    34    53    54    1
    35    58    59    2
    36    58    57    1
    37    50    51    2
    38     3     8   am
    39     3     2    1
    40    57    54    1
    41    40    42   ar
    42    40    39   ar
    43    42    43   ar
    44    61    62    1
    45    61    55   am
    46    35    34    1
    47    35    38    1
    48    54    55    1
    49     2     1    1
    50     2     5    1
    51    62    63    1
    52     6     5    1
    53    55    56    2
    54    39    38    1
    55    39    41   ar
    56    43    45   ar
    57    43    41   ar
    58    65    63   am
    59    65    66    1
    60    45    47   ar
    61    69    66    1
    62    41    44   ar
    63     5     7    1
    64    63    64    2
    65    66    67    1
    66    47    46   ar
    67    44    46   ar
    68    67    68    2
    69    77    75    1
    70    75    74    1
    71    74    76    1
    72    74    71    1
    73    70    71    1
    74    71    72    1
    75    72    73    2
