@<TRIPOS>MOLECULE
tmp/3b47A00.pdb
 118 114 0 0 0
SMALL
GASTEIGER

@<TRIPOS>ATOM
      1  N         13.4610   43.2010  -15.8950 N.3    50  ILE50      -0.1231
      2  CA        12.5410   42.2930  -16.5790 C.3    50  ILE50       0.1692
      3  C         12.6710   42.4290  -18.1040 C.2    50  ILE50       0.2592
      4  O         12.8580   43.5250  -18.6210 O.2    50  ILE50      -0.2718
      5  CB        11.0640   42.5940  -16.2010 C.3    50  ILE50       0.0266
      6  CG1       10.9010   42.6450  -14.6820 C.3    50  ILE50       0.0019
      7  CG2       10.1490   41.5250  -16.7870 C.3    50  ILE50       0.0020
      8  CD1       11.2120   41.3370  -13.9750 C.3    50  ILE50       0.0001
      9  N         12.5700   41.3110  -18.8190 N.am   51  TYR51      -0.1962
     10  CA        12.6570   41.3170  -20.2780 C.3    51  TYR51       0.1771
     11  C         11.4520   40.5990  -20.8670 C.2    51  TYR51       0.2620
     12  O         10.8610   39.7500  -20.2050 O.2    51  TYR51      -0.2715
     13  CB        13.9400   40.6160  -20.7520 C.3    51  TYR51       0.0574
     14  CG        15.2100   41.3610  -20.4190 C.ar   51  TYR51      -0.0198
     15  CD1       15.6290   41.5050  -19.0990 C.ar   51  TYR51      -0.0009
     16  CD2       15.9760   41.9530  -21.4220 C.ar   51  TYR51      -0.0009
     17  CE1       16.7710   42.2210  -18.7790 C.ar   51  TYR51       0.0417
     18  CE2       17.1280   42.6760  -21.1130 C.ar   51  TYR51       0.0417
     19  CZ        17.5150   42.8060  -19.7870 C.ar   51  TYR51       0.1957
     20  OH        18.6300   43.5390  -19.4580 O.3    51  TYR51      -0.2866
     21  N         11.0880   40.9360  -22.1060 N.am   52  ASP52      -0.1957
     22  CA         9.9560   40.2880  -22.7620 C.3    52  ASP52       0.1840
     23  C         10.4150   38.9830  -23.4000 C.2    52  ASP52       0.2621
     24  O         11.6020   38.6540  -23.3710 O.2    52  ASP52      -0.2715
     25  CB         9.3300   41.1930  -23.8330 C.3    52  ASP52       0.1450
     26  CG        10.2540   41.4470  -25.0190 C.2    52  ASP52       0.3671
     27  OD1       10.9310   40.5060  -25.4920 O.co2  52  ASP52      -0.2456
     28  OD2       10.2800   42.5990  -25.4980 O.co2  52  ASP52      -0.2456
     29  N          9.4720   38.2570  -23.9890 N.am   53  ALA53      -0.1977
     30  CA         9.7480   36.9690  -24.6180 C.3    53  ALA53       0.1597
     31  C         10.7480   37.0080  -25.7720 C.2    53  ALA53       0.2287
     32  O         11.2630   35.9680  -26.1810 O.2    53  ALA53      -0.2864
     33  CB         8.4380   36.3390  -25.0930 C.3    53  ALA53       0.0319
     34  N         14.1290   44.5420  -23.3560 N.3    57  PRO57      -0.2102
     35  CA        13.7890   45.0530  -22.0280 C.3    57  PRO57       0.1504
     36  C         12.3940   45.6330  -22.0100 C.2    57  PRO57       0.2575
     37  O         11.6630   45.5460  -22.9810 O.2    57  PRO57      -0.2718
     38  CB        14.8550   46.1210  -21.7750 C.3    57  PRO57       0.0282
     39  CG        15.1530   46.6130  -23.1290 C.3    57  PRO57       0.0208
     40  CD        15.1690   45.3700  -23.9880 C.3    57  PRO57       0.0893
     41  N         12.0450   46.2420  -20.8890 N.am   58  ALA58      -0.1980
     42  CA        10.7380   46.8440  -20.7310 C.3    58  ALA58       0.1597
     43  C         10.3910   47.8530  -21.8070 C.2    58  ALA58       0.2287
     44  O          9.3840   47.6050  -22.4980 O.2    58  ALA58      -0.2864
     45  CB        10.6160   47.4810  -19.3760 C.3    58  ALA58       0.0319
     46  N         10.9350   33.4870  -17.4770 N.3    89  LEU89      -0.1231
     47  CA         9.6700   33.4390  -16.7460 C.3    89  LEU89       0.1693
     48  C          8.6350   32.6180  -17.5060 C.2    89  LEU89       0.2591
     49  O          8.0990   33.0510  -18.5300 O.2    89  LEU89      -0.2718
     50  CB         9.1520   34.8570  -16.4930 C.3    89  LEU89       0.0284
     51  CG        10.1260   35.7010  -15.6700 C.3    89  LEU89       0.0019
     52  CD1        9.6390   37.1260  -15.5740 C.3    89  LEU89       0.0001
     53  CD2       10.2820   35.0790  -14.2840 C.3    89  LEU89       0.0001
     54  N          8.3690   31.4230  -16.9930 N.am   90  ALA90      -0.1980
     55  CA         7.4220   30.4990  -17.5990 C.3    90  ALA90       0.1597
     56  C          6.0060   31.0620  -17.6930 C.2    90  ALA90       0.2287
     57  O          5.5020   31.6920  -16.7550 O.2    90  ALA90      -0.2864
     58  CB         7.4020   29.1930  -16.8120 C.3    90  ALA90       0.0319
     59  N          2.9680   30.2660  -17.1280 N.3    92  GLU92      -0.1245
     60  CA         2.1200   29.3280  -16.4060 C.3    92  GLU92       0.1567
     61  C          0.6670   29.5120  -16.7900 C.2    92  GLU92       0.2260
     62  O          0.2830   30.5560  -17.3160 O.2    92  GLU92      -0.2867
     63  CB         2.2620   29.5340  -14.8960 C.3    92  GLU92       0.0388
     64  CG         3.6770   29.3980  -14.3880 C.3    92  GLU92       0.1160
     65  CD         3.7630   29.6000  -12.8910 C.2    92  GLU92       0.3649
     66  OE1        3.5940   30.7500  -12.4220 O.co2  92  GLU92      -0.2457
     67  OE2        3.9860   28.5960  -12.1830 O.co2  92  GLU92      -0.2457
     68  N         -1.8630   30.2550  -15.0480 N.3    94  ARG94      -0.1231
     69  CA        -2.4770   31.4630  -14.4780 C.3    94  ARG94       0.1694
     70  C         -2.1170   32.7190  -15.2820 C.2    94  ARG94       0.2592
     71  O         -2.8700   33.6940  -15.2920 O.2    94  ARG94      -0.2718
     72  CB        -2.0620   31.6640  -13.0070 C.3    94  ARG94       0.0321
     73  CG        -0.5650   31.8100  -12.7890 C.3    94  ARG94       0.0489
     74  CD        -0.2120   32.2330  -11.3490 C.3    94  ARG94       0.2205
     75  NE         1.2370   32.1810  -11.1580 N.pl3  94  ARG94      -0.0865
     76  CZ         1.9000   32.7450  -10.1550 C.cat  94  ARG94       0.5346
     77  NH1        3.2210   32.6270  -10.0990 N.pl3  94  ARG94       0.1354
     78  NH2        1.2540   33.4280   -9.2170 N.pl3  94  ARG94       0.1354
     79  N         -0.9620   32.6990  -15.9440 N.am   95  CYS95      -0.1970
     80  CA        -0.5160   33.8350  -16.7600 C.3    95  CYS95       0.1712
     81  C         -1.2080   33.8560  -18.1180 C.2    95  CYS95       0.2296
     82  O         -1.3770   34.9140  -18.7300 O.2    95  CYS95      -0.2864
     83  CB         0.9780   33.7490  -17.0340 C.3    95  CYS95       0.0983
     84  SG         2.0330   33.3730  -15.6050 S.3    95  CYS95      -0.0798
     85  N         -4.0770   33.8090  -19.0870 N.3    97  SER97      -0.1202
     86  CA        -5.3130   34.5740  -19.2270 C.3    97  SER97       0.2020
     87  C         -5.0220   35.8440  -20.0330 C.2    97  SER97       0.2619
     88  O         -5.8980   36.3610  -20.7290 O.2    97  SER97      -0.2717
     89  CB        -5.8480   34.9830  -17.8540 C.3    97  SER97       0.2103
     90  OG        -5.9830   33.8650  -16.9990 O.3    97  SER97      -0.2182
     91  N         -3.7820   36.3280  -19.9540 N.am   98  CYS98      -0.1955
     92  CA        -3.4000   37.5610  -20.6400 C.3    98  CYS98       0.1843
     93  C         -2.1810   37.4590  -21.5630 C.2    98  CYS98       0.2625
     94  O         -1.7770   38.4490  -22.1840 O.2    98  CYS98      -0.2714
     95  CB        -3.1340   38.6560  -19.6010 C.3    98  CYS98       0.0997
     96  SG        -4.3700   38.7790  -18.2640 S.3    98  CYS98      -0.0797
     97  N         -1.5820   36.2760  -21.6240 N.am   99  HIS99      -0.1973
     98  CA        -0.4190   36.0310  -22.4700 C.3    99  HIS99       0.1656
     99  C         -0.7510   34.7890  -23.2940 C.2    99  HIS99       0.2291
    100  O         -1.1020   33.7460  -22.7340 O.2    99  HIS99      -0.2864
    101  CB         0.8190   35.7930  -21.6000 C.3    99  HIS99       0.0771
    102  CG         1.2850   37.0130  -20.8630 C.ar   99  HIS99       0.0820
    103  ND1        2.0610   38.0060  -21.4200 N.ar   99  HIS99      -0.2267
    104  CD2        1.0760   37.3900  -19.5760 C.ar   99  HIS99       0.1154
    105  CE1        2.2940   38.9260  -20.4670 C.ar   99  HIS99       0.1986
    106  NE2        1.7140   38.5870  -19.3300 N.ar   99  HIS99      -0.2212
    107  N          7.0300   34.2690  -20.9990 N.3   106  ASN106     -0.1225
    108  CA         6.5040   35.6170  -21.2250 C.3   106  ASN106      0.1785
    109  C          7.6440   36.6070  -21.1500 C.2   106  ASN106      0.2597
    110  O          7.4850   37.7910  -21.4480 O.2   106  ASN106     -0.2718
    111  CB         5.4530   35.9770  -20.1770 C.3   106  ASN106      0.1169
    112  CG         4.2370   35.1120  -20.2830 C.2   106  ASN106      0.2627
    113  OD1        3.9790   34.5340  -21.3400 O.2   106  ASN106     -0.2716
    114  ND2        3.4660   35.0190  -19.2000 N.am  106  ASN106     -0.0877
    115  N          8.8060   36.1060  -20.7530 N.am  107  GLY107     -0.1957
    116  CA         9.9660   36.9620  -20.6370 C.3   107  GLY107      0.1869
    117  C         10.9820   36.3560  -19.6910 C.2   107  GLY107      0.2309
    118  O         10.9590   35.1520  -19.4330 O.2   107  GLY107     -0.2863
@<TRIPOS>BOND
     1    32    31    2
     2    31    30    1
     3    28    26   ar
     4    27    26   ar
     5    33    30    1
     6    26    25    1
     7    30    29    1
     8    29    23   am
     9    40    34    1
    10    40    39    1
    11    25    22    1
    12    23    24    2
    13    23    22    1
    14    34    35    1
    15    99   100    2
    16    99    98    1
    17    39    38    1
    18    37    36    2
    19    22    21    1
    20    44    43    2
    21    98    97    1
    22    98   101    1
    23    94    93    2
    24    21    11   am
    25    35    36    1
    26    35    38    1
    27    36    41   am
    28    43    42    1
    29    97    93   am
    30   101   102    1
    31    93    92    1
    32   110   109    2
    33    16    18   ar
    34    16    14   ar
    35   103   102   ar
    36   103   105   ar
    37   113   112    2
    38   108   109    1
    39   108   107    1
    40   108   111    1
    41   109   115   am
    42    18    19   ar
    43    41    42    1
    44    11    10    1
    45    11    12    2
    46   102   104   ar
    47   115   116    1
    48    13    14    1
    49    13    10    1
    50    42    45    1
    51    88    87    2
    52    92    91    1
    53    92    95    1
    54   116   117    1
    55   105   106   ar
    56    14    15   ar
    57   112   111    1
    58   112   114   am
    59    10     9    1
    60    87    91   am
    61    87    86    1
    62    19    20    1
    63    19    17   ar
    64   117   118    2
    65    95    96    1
    66   104   106   ar
    67    86    85    1
    68    86    89    1
    69    15    17   ar
    70     9     3   am
    71    82    81    2
    72     4     3    2
    73    49    48    2
    74    81    80    1
    75     3     2    1
    76    89    90    1
    77    56    55    1
    78    56    57    2
    79    55    54    1
    80    55    58    1
    81    48    54   am
    82    48    47    1
    83    46    47    1
    84    62    61    2
    85    59    60    1
    86    83    80    1
    87    83    84    1
    88    61    60    1
    89     7     5    1
    90    80    79    1
    91    47    50    1
    92     2     5    1
    93     2     1    1
    94    50    51    1
    95    60    63    1
    96     5     6    1
    97    79    70   am
    98    51    52    1
    99    51    53    1
   100    71    70    2
   101    70    69    1
   102    68    69    1
   103    63    64    1
   104     6     8    1
   105    69    72    1
   106    64    65    1
   107    72    73    1
   108    65    66   ar
   109    65    67   ar
   110    73    74    1
   111    74    75    1
   112    75    76    2
   113    76    77    1
   114    76    78    1
