@<TRIPOS>MOLECULE
tmp/3b4fA00.pdb
 164 161 0 0 0
SMALL
GASTEIGER

@<TRIPOS>ATOM
      1  N          8.1630   -0.3280   10.2650 N.3     2  TRP2       -0.1241
      2  CA         7.4800   -1.2570   11.1470 C.3     2  TRP2        0.1605
      3  C          6.5160   -2.1640   10.3920 C.2     2  TRP2        0.2264
      4  O          5.9230   -1.7670    9.3810 O.2     2  TRP2       -0.2867
      5  CB         6.7860   -0.5110   12.2960 C.3     2  TRP2        0.0550
      6  CG         5.5110    0.2020   11.9380 C.ar    2  TRP2        0.0003
      7  CD1        5.3780    1.5110   11.5570 C.ar    2  TRP2        0.0946
      8  CD2        4.1830   -0.3470   11.9520 C.ar    2  TRP2        0.0152
      9  NE1        4.0600    1.8010   11.3260 N.ar    2  TRP2       -0.2442
     10  CE2        3.3030    0.6820   11.5620 C.ar    2  TRP2        0.0810
     11  CE3        3.6530   -1.6160   12.2520 C.ar    2  TRP2        0.0012
     12  CZ2        1.9190    0.4890   11.4630 C.ar    2  TRP2        0.0191
     13  CZ3        2.2760   -1.8120   12.1470 C.ar    2  TRP2        0.0001
     14  CH2        1.4240   -0.7590   11.7610 C.ar    2  TRP2        0.0015
     15  N          4.7040   -6.5770   10.8620 N.3     4  TYR4       -0.1241
     16  CA         4.2970   -7.6900   11.7220 C.3     4  TYR4        0.1605
     17  C          5.1740   -8.9310   11.5440 C.2     4  TYR4        0.2264
     18  O          4.9170   -9.9770   12.1570 O.2     4  TYR4       -0.2867
     19  CB         2.8130   -8.0260   11.5020 C.3     4  TYR4        0.0534
     20  CG         1.8860   -6.9280   11.9830 C.ar    4  TYR4       -0.0201
     21  CD1        1.4070   -5.9550   11.1000 C.ar    4  TYR4       -0.0009
     22  CD2        1.5020   -6.8530   13.3280 C.ar    4  TYR4       -0.0009
     23  CE1        0.5570   -4.9330   11.5370 C.ar    4  TYR4        0.0417
     24  CE2        0.6530   -5.8300   13.7790 C.ar    4  TYR4        0.0417
     25  CZ         0.1880   -4.8820   12.8810 C.ar    4  TYR4        0.1957
     26  OH        -0.6460   -3.8810   13.3270 O.3     4  TYR4       -0.2866
     27  N         -2.9940    0.2660    3.5490 N.3    59  ASN59      -0.1240
     28  CA        -1.8130    1.0050    4.0020 C.3    59  ASN59       0.1653
     29  C         -0.5860    0.1250    4.2170 C.2    59  ASN59       0.2266
     30  O          0.3920    0.5380    4.8430 O.2    59  ASN59      -0.2867
     31  CB        -2.1260    1.8270    5.2610 C.3    59  ASN59       0.1155
     32  CG        -2.6700    0.9790    6.4110 C.2    59  ASN59       0.2627
     33  OD1       -2.2880   -0.1850    6.6070 O.2    59  ASN59      -0.2716
     34  ND2       -3.5620    1.5750    7.1860 N.am   59  ASN59      -0.0877
     35  N         -0.4510   -2.4030    6.0440 N.3    61  HIS61      -0.1226
     36  CA        -0.5250   -2.9960    7.3910 C.3    61  HIS61       0.1752
     37  C         -1.8840   -3.6540    7.5830 C.2    61  HIS61       0.2595
     38  O         -1.9780   -4.8100    8.0150 O.2    61  HIS61      -0.2718
     39  CB        -0.3310   -1.9440    8.4940 C.3    61  HIS61       0.0759
     40  CG         0.9260   -1.1440    8.3600 C.ar   61  HIS61       0.0818
     41  ND1        2.1800   -1.6890    8.5490 N.ar   61  HIS61      -0.2268
     42  CD2        1.1220    0.1630    8.0810 C.ar   61  HIS61       0.1154
     43  CE1        3.0940   -0.7510    8.3800 C.ar   61  HIS61       0.1986
     44  NE2        2.4780    0.3800    8.0870 N.ar   61  HIS61      -0.2212
     45  N         -2.9250   -2.8840    7.2810 N.am   62  ALA62      -0.1980
     46  CA        -4.3000   -3.3440    7.2610 C.3    62  ALA62       0.1597
     47  C         -5.0570   -2.5070    6.2110 C.2    62  ALA62       0.2287
     48  O         -4.4300   -1.8750    5.3490 O.2    62  ALA62      -0.2864
     49  CB        -4.9320   -3.2130    8.6500 C.3    62  ALA62       0.0319
     50  N         -8.0610    0.6460    5.9750 N.3    64  ASN64      -0.1240
     51  CA        -8.8810    1.6120    6.7000 C.3    64  ASN64       0.1653
     52  C        -10.0900    2.0000    5.8660 C.2    64  ASN64       0.2266
     53  O         -9.9530    2.2870    4.6710 O.2    64  ASN64      -0.2867
     54  CB        -8.0950    2.9010    7.0250 C.3    64  ASN64       0.1155
     55  CG        -6.8780    2.6680    7.9050 C.2    64  ASN64       0.2627
     56  OD1       -5.8620    3.3760    7.7710 O.2    64  ASN64      -0.2716
     57  ND2       -6.9560    1.6930    8.8020 N.am   64  ASN64      -0.0877
     58  N        -12.4220    6.4260   11.3920 N.3    89  GLN89      -0.1245
     59  CA       -12.1430    5.2870   10.5330 C.3    89  GLN89       0.1566
     60  C        -12.4000    3.9780   11.2640 C.2    89  GLN89       0.2260
     61  O        -12.4760    3.9570   12.4900 O.2    89  GLN89      -0.2867
     62  CB       -10.6840    5.3440   10.0580 C.3    89  GLN89       0.0367
     63  CG        -9.6400    5.2760   11.1800 C.3    89  GLN89       0.0905
     64  CD        -8.8910    3.9590   11.2100 C.2    89  GLN89       0.2608
     65  OE1       -9.4670    2.9010   11.4580 O.2    89  GLN89      -0.2717
     66  NE2       -7.5910    4.0190   10.9540 N.am   89  GLN89      -0.0878
     67  N        -10.9960   -0.3770   10.9890 N.3    91  HIS91      -0.1241
     68  CA       -10.0730   -1.3230   10.3930 C.3    91  HIS91       0.1621
     69  C        -10.1820   -2.5880   11.2210 C.2    91  HIS91       0.2264
     70  O        -10.8860   -2.6170   12.2500 O.2    91  HIS91      -0.2867
     71  CB        -8.6360   -0.7970   10.4290 C.3    91  HIS91       0.0745
     72  CG        -8.1370   -0.5410   11.8130 C.ar   91  HIS91       0.0817
     73  ND1       -8.3030    0.6680   12.4450 N.ar   91  HIS91      -0.2268
     74  CD2       -7.5120   -1.3520   12.7020 C.ar   91  HIS91       0.1154
     75  CE1       -7.7960    0.5970   13.6630 C.ar   91  HIS91       0.1986
     76  NE2       -7.3090   -0.6180   13.8430 N.ar   91  HIS91      -0.2212
     77  N         -7.9400   -6.3640   12.5470 N.3    93  HIS93      -0.1241
     78  CA        -6.7260   -7.1580   12.6660 C.3    93  HIS93       0.1621
     79  C         -7.1790   -8.6050   12.5670 C.2    93  HIS93       0.2264
     80  O         -8.2320   -8.9490   13.1010 O.2    93  HIS93      -0.2867
     81  CB        -6.0440   -6.9050   14.0120 C.3    93  HIS93       0.0745
     82  CG        -5.7800   -5.4550   14.2880 C.ar   93  HIS93       0.0817
     83  ND1       -4.5820   -4.8430   13.9880 N.ar   93  HIS93      -0.2268
     84  CD2       -6.5710   -4.4940   14.8200 C.ar   93  HIS93       0.1154
     85  CE1       -4.6370   -3.5720   14.3450 C.ar   93  HIS93       0.1986
     86  NE2       -5.8370   -3.3320   14.8460 N.ar   93  HIS93      -0.2212
     87  N        -11.8800   -2.5500   14.8720 N.3   116  HIS116     -0.1241
     88  CA       -11.6340   -1.3490   15.6380 C.3   116  HIS116      0.1621
     89  C        -12.2620   -0.1520   14.9590 C.2   116  HIS116      0.2264
     90  O        -11.8830    0.2060   13.8460 O.2   116  HIS116     -0.2867
     91  CB       -10.1210   -1.1120   15.8120 C.3   116  HIS116      0.0745
     92  CG        -9.4510   -2.1100   16.7050 C.ar  116  HIS116      0.0817
     93  ND1       -8.0860   -2.3080   16.7060 N.ar  116  HIS116     -0.2268
     94  CD2       -9.9570   -2.9690   17.6230 C.ar  116  HIS116      0.1154
     95  CE1       -7.7810   -3.2440   17.5870 C.ar  116  HIS116      0.1986
     96  NE2       -8.8960   -3.6620   18.1550 N.ar  116  HIS116     -0.2212
     97  N        -12.5580    3.6930   15.2980 N.3   118  VAL118     -0.1245
     98  CA       -11.6970    4.6910   15.9500 C.3   118  VAL118      0.1561
     99  C        -12.4060    6.0390   15.9780 C.2   118  VAL118      0.2260
    100  O        -12.8820    6.5050   14.9390 O.2   118  VAL118     -0.2867
    101  CB       -10.3330    4.8220   15.2360 C.3   118  VAL118      0.0252
    102  CG1       -9.3960    5.7430   16.0150 C.3   118  VAL118      0.0019
    103  CG2       -9.6960    3.4620   15.0380 C.3   118  VAL118      0.0019
    104  N         -8.2630   15.0610   14.9600 N.3   127  PHE127     -0.1241
    105  CA        -7.6210   13.8090   15.3560 C.3   127  PHE127      0.1605
    106  C         -6.1870   14.0460   15.8140 C.2   127  PHE127      0.2264
    107  O         -5.7720   13.5290   16.8500 O.2   127  PHE127     -0.2867
    108  CB        -7.6240   12.8080   14.2050 C.3   127  PHE127      0.0534
    109  CG        -6.9880   11.4910   14.5460 C.ar  127  PHE127     -0.0203
    110  CD1       -5.6470   11.2590   14.2680 C.ar  127  PHE127     -0.0042
    111  CD2       -7.7370   10.4770   15.1240 C.ar  127  PHE127     -0.0042
    112  CE1       -5.0540   10.0410   14.5730 C.ar  127  PHE127     -0.0003
    113  CE2       -7.1570    9.2510   15.4380 C.ar  127  PHE127     -0.0003
    114  CZ        -5.8090    9.0310   15.1640 C.ar  127  PHE127     -0.0000
    115  N        -11.7150    3.8830   21.2080 N.3   139  VAL139     -0.1245
    116  CA       -11.8100    2.8370   20.1860 C.3   139  VAL139      0.1561
    117  C        -12.7990    1.7890   20.6600 C.2   139  VAL139      0.2260
    118  O        -12.6920    1.2890   21.7790 O.2   139  VAL139     -0.2867
    119  CB       -10.4420    2.2290   19.7880 C.3   139  VAL139      0.0252
    120  CG1      -10.5920    1.2850   18.5990 C.3   139  VAL139      0.0019
    121  CG2       -9.4420    3.3400   19.4340 C.3   139  VAL139      0.0019
    122  N         -2.9810    3.2710   21.2470 N.3   194  LEU194     -0.1231
    123  CA        -2.9590    2.7220   19.8950 C.3   194  LEU194      0.1693
    124  C         -2.2470    1.3650   19.9450 C.2   194  LEU194      0.2593
    125  O         -1.2530    1.2120   20.6570 O.2   194  LEU194     -0.2718
    126  CB        -2.1970    3.6600   18.9450 C.3   194  LEU194      0.0284
    127  CG        -2.4840    5.1700   18.8790 C.3   194  LEU194      0.0019
    128  CD1       -1.6150    5.8190   17.7970 C.3   194  LEU194      0.0001
    129  CD2       -3.9360    5.4600   18.5930 C.3   194  LEU194      0.0001
    130  N         -2.7360    0.3810   19.1930 N.am  195  THR195     -0.1939
    131  CA        -2.0540   -0.9190   19.1450 C.3   195  THR195      0.2028
    132  C         -1.0550   -0.9930   17.9910 C.2   195  THR195      0.2643
    133  O         -0.3920   -2.0260   17.7950 O.2   195  THR195     -0.2714
    134  CB        -3.0360   -2.0710   18.9700 C.3   195  THR195      0.1808
    135  OG1       -3.6490   -1.9570   17.6770 O.3   195  THR195     -0.2208
    136  CG2       -4.0970   -2.0640   20.0780 C.3   195  THR195      0.0379
    137  N         -0.9960    0.0860   17.2090 N.am  196  THR196     -0.1937
    138  CA        -0.0360    0.2410   16.1150 C.3   196  THR196      0.2013
    139  C          0.9140    1.4080   16.4100 C.2   196  THR196      0.2484
    140  O          0.5140    2.3840   17.0540 O.2   196  THR196     -0.2729
    141  CB        -0.7480    0.5470   14.7770 C.3   196  THR196      0.1807
    142  OG1       -1.6010    1.6860   14.9400 O.3   196  THR196     -0.2208
    143  CG2       -1.5950   -0.6430   14.2980 C.3   196  THR196      0.0379
    144  N          2.1770    1.3260   15.9370 N.am  197  PRO197     -0.2726
    145  CA         3.0160    2.5270   16.0490 C.3   197  PRO197      0.1402
    146  C          2.3010    3.7580   15.4890 C.2   197  PRO197      0.2269
    147  O          1.6650    3.6610   14.4370 O.2   197  PRO197     -0.2865
    148  CB         4.2360    2.1790   15.1990 C.3   197  PRO197      0.0296
    149  CG         4.3590    0.6710   15.3440 C.3   197  PRO197      0.0237
    150  CD         2.9090    0.1920   15.3450 C.3   197  PRO197      0.0939
    151  N        -10.4910    2.3690   25.7490 N.3   205  TRP205     -0.1241
    152  CA       -10.8920    1.1750   25.0160 C.3   205  TRP205      0.1605
    153  C        -12.2320    0.7070   25.5300 C.2   205  TRP205      0.2264
    154  O        -12.4540    0.6630   26.7390 O.2   205  TRP205     -0.2867
    155  CB        -9.8560    0.0600   25.1730 C.3   205  TRP205      0.0550
    156  CG        -8.7540    0.1790   24.1970 C.ar  205  TRP205      0.0003
    157  CD1       -7.5130    0.7300   24.4080 C.ar  205  TRP205      0.0946
    158  CD2       -8.7770   -0.2620   22.8300 C.ar  205  TRP205      0.0152
    159  NE1       -6.7770    0.6810   23.2450 N.ar  205  TRP205     -0.2442
    160  CE2       -7.5200    0.0620   22.2670 C.ar  205  TRP205      0.0810
    161  CE3       -9.7380   -0.9000   22.0300 C.ar  205  TRP205      0.0012
    162  CZ2       -7.1980   -0.2330   20.9350 C.ar  205  TRP205      0.0191
    163  CZ3       -9.4190   -1.1940   20.7030 C.ar  205  TRP205      0.0001
    164  CH2       -8.1570   -0.8620   20.1720 C.ar  205  TRP205      0.0015
@<TRIPOS>BOND
     1    27    28    1
     2    28    29    1
     3    28    31    1
     4    29    30    2
     5    53    52    2
     6    31    32    1
     7    48    47    2
     8    52    51    1
     9    50    51    1
    10    35    36    1
    11    47    46    1
    12    32    33    2
    13    32    34   am
    14    51    54    1
    15    54    55    1
    16    46    45    1
    17    46    49    1
    18    45    37   am
    19    36    37    1
    20    36    39    1
    21    37    38    2
    22    56    55    2
    23    55    57   am
    24    42    44   ar
    25    42    40   ar
    26    44    43   ar
    27    40    39    1
    28    40    41   ar
    29    43    41   ar
    30     4     3    2
    31    62    59    1
    32    62    63    1
    33     1     2    1
    34     3     2    1
    35    68    71    1
    36    68    67    1
    37    68    69    1
    38    71    72    1
    39    59    60    1
    40    59    58    1
    41    15    16    1
    42    66    64   am
    43    21    23   ar
    44    21    20   ar
    45     2     5    1
    46    63    64    1
    47    64    65    2
    48    69    70    2
    49    60    61    2
    50     9     7   ar
    51     9    10   ar
    52    12    10   ar
    53    12    14   ar
    54    19    16    1
    55    19    20    1
    56    23    25   ar
    57    17    16    1
    58    17    18    2
    59     7     6   ar
    60    10     8   ar
    61    14    13   ar
    62    72    73   ar
    63    72    74   ar
    64     6     8   ar
    65     6     5    1
    66     8    11   ar
    67    20    22   ar
    68    13    11   ar
    69    73    75   ar
    70    77    78    1
    71    79    78    1
    72    79    80    2
    73    78    81    1
    74    74    76   ar
    75    25    26    1
    76    25    24   ar
    77    22    24   ar
    78    75    76   ar
    79    90    89    2
    80    83    82   ar
    81    83    85   ar
    82    81    82    1
    83   108   109    1
    84   108   105    1
    85   110   109   ar
    86   110   112   ar
    87    82    84   ar
    88   143   141    1
    89    85    86   ar
    90   147   146    2
    91   109   111   ar
    92   112   114   ar
    93   141   142    1
    94   141   138    1
    95    84    86   ar
    96    87    88    1
    97   100    99    2
    98    89    88    1
    99   104   105    1
   100   103   101    1
   101   111   113   ar
   102   114   113   ar
   103   148   149    1
   104   148   145    1
   105   101    98    1
   106   101   102    1
   107    97    98    1
   108   149   150    1
   109   150   144    1
   110   105   106    1
   111   146   145    1
   112    88    91    1
   113    91    92    1
   114   106   107    2
   115   144   145    1
   116   144   139   am
   117    98    99    1
   118   138   139    1
   119   138   137    1
   120   139   140    2
   121    92    93   ar
   122    92    94   ar
   123    93    95   ar
   124   137   132   am
   125    95    96   ar
   126    94    96   ar
   127   135   134    1
   128   133   132    2
   129   128   127    1
   130   132   131    1
   131   129   127    1
   132   120   119    1
   133   127   126    1
   134   126   123    1
   135   134   131    1
   136   134   136    1
   137   131   130    1
   138   130   124   am
   139   121   119    1
   140   119   116    1
   141   123   124    1
   142   123   122    1
   143   124   125    2
   144   164   163   ar
   145   164   162   ar
   146   116   117    1
   147   116   115    1
   148   117   118    2
   149   163   161   ar
   150   162   160   ar
   151   161   158   ar
   152   160   158   ar
   153   160   159   ar
   154   158   156   ar
   155   159   157   ar
   156   156   157   ar
   157   156   155    1
   158   152   155    1
   159   152   153    1
   160   152   151    1
   161   153   154    2
