@<TRIPOS>MOLECULE
tmp/3b4pB00.pdb
 179 174 0 0 0
SMALL
GASTEIGER

@<TRIPOS>ATOM
      1  N         24.5540   20.3530   64.1970 N.3    31  ARG31      -0.1245
      2  CA        24.3050   19.1900   65.0510 C.3    31  ARG31       0.1563
      3  C         22.9820   18.4630   64.6750 C.2    31  ARG31       0.2260
      4  O         22.8030   17.2520   64.9630 O.2    31  ARG31      -0.2867
      5  CB        24.2650   19.6370   66.5090 C.3    31  ARG31       0.0307
      6  CG        25.6380   19.9740   67.0250 C.3    31  ARG31       0.0489
      7  CD        25.6420   20.8810   68.2470 C.3    31  ARG31       0.2205
      8  NE        24.9560   20.2320   69.3720 N.pl3  31  ARG31      -0.0865
      9  CZ        24.7950   20.8090   70.5490 C.cat  31  ARG31       0.5346
     10  NH1       25.2910   21.9910   70.7680 N.pl3  31  ARG31       0.1354
     11  NH2       24.2110   20.1470   71.5220 N.pl3  31  ARG31       0.1354
     12  N         23.7630   15.6480   62.1340 N.3    34  ARG34      -0.1245
     13  CA        24.8710   14.7530   62.5040 C.3    34  ARG34       0.1563
     14  C         24.4550   13.2830   62.5300 C.2    34  ARG34       0.2260
     15  O         25.2820   12.4170   62.2850 O.2    34  ARG34      -0.2867
     16  CB        25.5060   15.1920   63.7590 C.3    34  ARG34       0.0307
     17  CG        26.8610   14.5040   63.9150 C.3    34  ARG34       0.0489
     18  CD        27.4910   15.0190   65.0880 C.3    34  ARG34       0.2205
     19  NE        26.7830   14.8220   66.3120 N.pl3  34  ARG34      -0.0865
     20  CZ        27.2180   15.3410   67.4250 C.cat  34  ARG34       0.5346
     21  NH1       28.4030   15.9660   67.4070 N.pl3  34  ARG34       0.1354
     22  NH2       26.5500   15.1780   68.5370 N.pl3  34  ARG34       0.1354
     23  N         24.9700    7.6660   72.3640 N.3    45  GLY45      -0.1210
     24  CA        24.5510    8.0250   73.6740 C.3    45  GLY45       0.1956
     25  C         25.6200    8.0320   74.7790 C.2    45  GLY45       0.2608
     26  O         26.7960    7.9850   74.4960 O.2    45  GLY45      -0.2717
     27  N         25.0970    8.1230   75.9920 N.am   46  LEU46      -0.2032
     28  CA        25.8680    8.3220   77.1970 C.3    46  LEU46       0.1282
     29  C         25.9430    6.9750   78.0120 C.3    46  LEU46       0.2036
     30  O         24.8680    6.4310   78.4830 O.3    46  LEU46      -0.2185
     31  CB        25.2990    9.3970   78.0880 C.3    46  LEU46       0.0244
     32  CG        25.9790    9.6550   79.4360 C.3    46  LEU46       0.0018
     33  CD1       27.4350   10.0680   79.2970 C.3    46  LEU46       0.0001
     34  CD2       25.1540   10.6220   80.2580 C.3    46  LEU46       0.0001
     35  N         22.1920    5.6590   78.5370 N.3    55  ILE55      -0.1245
     36  CA        21.1350    6.2610   77.7440 C.3    55  ILE55       0.1561
     37  C         21.5080    6.0180   76.2850 C.2    55  ILE55       0.2260
     38  O         22.3970    6.7320   75.7700 O.2    55  ILE55      -0.2867
     39  CB        21.0700    7.7580   78.0300 C.3    55  ILE55       0.0252
     40  CG1       20.7590    8.0030   79.4970 C.3    55  ILE55       0.0019
     41  CG2       20.0410    8.4940   77.1160 C.3    55  ILE55       0.0019
     42  CD1       20.7930    9.4340   79.8400 C.3    55  ILE55       0.0001
     43  N         20.5040    5.7450   72.3960 N.3    57  ILE57      -0.1245
     44  CA        19.4920    6.2210   71.4300 C.3    57  ILE57       0.1561
     45  C         19.6820    5.3930   70.1630 C.2    57  ILE57       0.2260
     46  O         20.7890    5.3730   69.5850 O.2    57  ILE57      -0.2867
     47  CB        19.7930    7.6690   71.1400 C.3    57  ILE57       0.0252
     48  CG1       19.7510    8.4650   72.4630 C.3    57  ILE57       0.0019
     49  CG2       18.8290    8.2730   70.1020 C.3    57  ILE57       0.0019
     50  CD1       20.9980    9.2150   72.5970 C.3    57  ILE57       0.0001
     51  N         16.9490   13.1640   69.0750 N.3    66  HIS66      -0.1241
     52  CA        17.7880   13.4090   70.2010 C.3    66  HIS66       0.1621
     53  C         18.6310   14.6760   70.0300 C.2    66  HIS66       0.2264
     54  O         18.8110   15.4140   70.9700 O.2    66  HIS66      -0.2867
     55  CB        18.7890   12.2490   70.3930 C.3    66  HIS66       0.0745
     56  CG        19.7040   12.4620   71.5500 C.ar   66  HIS66       0.0817
     57  ND1       19.2610   12.3360   72.8580 N.ar   66  HIS66      -0.2268
     58  CD2       20.9780   12.8910   71.5960 C.ar   66  HIS66       0.1154
     59  CE1       20.2550   12.6450   73.6680 C.ar   66  HIS66       0.1986
     60  NE2       21.3240   12.9700   72.9370 N.ar   66  HIS66      -0.2212
     61  N         16.8430   17.8060   71.3610 N.3    69  TRP69      -0.1227
     62  CA        16.9550   17.9110   72.8200 C.3    69  TRP69       0.1737
     63  C         18.3720   18.3590   73.2100 C.2    69  TRP69       0.2596
     64  O         18.5780   19.2620   74.0200 O.2    69  TRP69      -0.2718
     65  CB        16.6350   16.5230   73.4690 C.3    69  TRP69       0.0564
     66  CG        16.8480   16.4520   74.9270 C.ar   69  TRP69       0.0003
     67  CD1       15.9920   16.8330   75.9090 C.ar   69  TRP69       0.0946
     68  CD2       18.0710   16.1090   75.5680 C.ar   69  TRP69       0.0152
     69  NE1       16.5620   16.6560   77.1420 N.ar   69  TRP69      -0.2442
     70  CE2       17.8540   16.2310   76.9640 C.ar   69  TRP69       0.0810
     71  CE3       19.3290   15.6250   75.1060 C.ar   69  TRP69       0.0012
     72  CZ2       18.8580   15.9260   77.8710 C.ar   69  TRP69       0.0191
     73  CZ3       20.2930   15.3400   75.9830 C.ar   69  TRP69       0.0001
     74  CH2       20.0890   15.5310   77.3690 C.ar   69  TRP69       0.0015
     75  N         19.3400   17.7460   72.5810 N.am   70  SER70      -0.1952
     76  CA        20.7460   18.0690   72.9560 C.3    70  SER70       0.1924
     77  C         21.0740   19.5660   72.6910 C.2    70  SER70       0.2314
     78  O         21.7120   20.2680   73.4880 O.2    70  SER70      -0.2863
     79  CB        21.7230   17.1200   72.2730 C.3    70  SER70       0.2116
     80  OG        23.1100   17.5520   72.3130 O.3    70  SER70      -0.2180
     81  N         22.2410   21.8600   75.6620 N.3    74  PHE74      -0.1241
     82  CA        23.6600   22.1950   75.5380 C.3    74  PHE74       0.1605
     83  C         23.8480   23.1320   74.3320 C.2    74  PHE74       0.2264
     84  O         24.3910   22.7230   73.3020 O.2    74  PHE74      -0.2867
     85  CB        24.5030   20.9460   75.4600 C.3    74  PHE74       0.0534
     86  CG        24.2980   20.0430   76.5940 C.ar   74  PHE74      -0.0203
     87  CD1       23.4190   18.9720   76.4940 C.ar   74  PHE74      -0.0042
     88  CD2       25.0470   20.1920   77.7910 C.ar   74  PHE74      -0.0042
     89  CE1       23.2490   18.0680   77.5470 C.ar   74  PHE74      -0.0003
     90  CE2       24.8710   19.2940   78.8130 C.ar   74  PHE74      -0.0003
     91  CZ        23.9650   18.2450   78.6850 C.ar   74  PHE74      -0.0000
     92  N         27.7240   24.1080   73.0940 N.3    77  TRP77      -0.1241
     93  CA        28.7460   23.1740   73.4730 C.3    77  TRP77       0.1605
     94  C         29.8780   23.1520   72.4960 C.2    77  TRP77       0.2264
     95  O         29.6670   23.1770   71.2710 O.2    77  TRP77      -0.2867
     96  CB        28.1450   21.7970   73.4560 C.3    77  TRP77       0.0550
     97  CG        29.0510   20.7870   74.0540 C.ar   77  TRP77       0.0003
     98  CD1       29.8070   19.8810   73.3970 C.ar   77  TRP77       0.0946
     99  CD2       29.3090   20.6060   75.4250 C.ar   77  TRP77       0.0152
    100  NE1       30.5280   19.1050   74.2630 N.ar   77  TRP77      -0.2442
    101  CE2       30.2810   19.5600   75.5340 C.ar   77  TRP77       0.0810
    102  CE3       28.8980   21.2670   76.5790 C.ar   77  TRP77       0.0012
    103  CZ2       30.7450   19.0700   76.7820 C.ar   77  TRP77       0.0191
    104  CZ3       29.3060   20.8180   77.7830 C.ar   77  TRP77       0.0001
    105  CH2       30.2820   19.6970   77.8870 C.ar   77  TRP77       0.0015
    106  N         33.5360   20.7220   71.9280 N.3    79  TRP79      -0.1241
    107  CA        34.6200   19.7800   72.2740 C.3    79  TRP79       0.1605
    108  C         35.9640   20.4130   71.9560 C.2    79  TRP79       0.2264
    109  O         36.1420   21.0040   70.8730 O.2    79  TRP79      -0.2867
    110  CB        34.4940   18.5110   71.4520 C.3    79  TRP79       0.0550
    111  CG        33.1520   17.7310   71.5070 C.ar   79  TRP79       0.0003
    112  CD1       32.2370   17.6330   70.4520 C.ar   79  TRP79       0.0946
    113  CD2       32.5630   17.0090   72.5920 C.ar   79  TRP79       0.0152
    114  NE1       31.1580   16.8760   70.8380 N.ar   79  TRP79      -0.2442
    115  CE2       31.3230   16.4920   72.1480 C.ar   79  TRP79       0.0810
    116  CE3       32.9080   16.7910   73.9480 C.ar   79  TRP79       0.0012
    117  CZ2       30.4960   15.7470   72.9560 C.ar   79  TRP79       0.0191
    118  CZ3       32.1120   16.0300   74.6850 C.ar   79  TRP79       0.0001
    119  CH2       30.8900   15.5320   74.2300 C.ar   79  TRP79       0.0015
    120  N         19.0090   22.3230   81.9210 N.3   105  PHE105     -0.1241
    121  CA        18.1710   21.2140   82.2170 C.3   105  PHE105      0.1605
    122  C         16.9780   21.7710   82.9400 C.2   105  PHE105      0.2264
    123  O         17.1080   22.4620   83.9590 O.2   105  PHE105     -0.2867
    124  CB        18.8960   20.1490   83.1310 C.3   105  PHE105      0.0534
    125  CG        19.7060   19.1100   82.3700 C.ar  105  PHE105     -0.0203
    126  CD1       20.0990   17.9210   83.0080 C.ar  105  PHE105     -0.0042
    127  CD2       20.1210   19.3010   81.0340 C.ar  105  PHE105     -0.0042
    128  CE1       20.8710   16.9550   82.3920 C.ar  105  PHE105     -0.0003
    129  CE2       20.9710   18.3490   80.3980 C.ar  105  PHE105     -0.0003
    130  CZ        21.2700   17.1190   81.0870 C.ar  105  PHE105     -0.0000
    131  N         28.8600   23.6500   82.4100 N.3   113  TYR113     -0.1241
    132  CA        29.3450   22.2840   82.5260 C.3   113  TYR113      0.1605
    133  C         30.7000   22.1360   81.8660 C.2   113  TYR113      0.2264
    134  O         30.8540   22.5560   80.7130 O.2   113  TYR113     -0.2867
    135  CB        28.3420   21.3650   81.8720 C.3   113  TYR113      0.0534
    136  CG        28.5860   19.8700   81.8460 C.ar  113  TYR113     -0.0201
    137  CD1       29.2550   19.2220   82.8300 C.ar  113  TYR113     -0.0009
    138  CD2       28.2570   19.1200   80.7250 C.ar  113  TYR113     -0.0009
    139  CE1       29.4740   17.8300   82.7740 C.ar  113  TYR113      0.0417
    140  CE2       28.4560   17.8150   80.6280 C.ar  113  TYR113      0.0417
    141  CZ        29.0870   17.1010   81.6500 C.ar  113  TYR113      0.1957
    142  OH        29.2720   15.7350   81.5730 O.3   113  TYR113     -0.2866
    143  N         36.1500   13.6900   78.6470 N.3   117  PHE117     -0.1241
    144  CA        35.3680   12.7070   77.9800 C.3   117  PHE117      0.1605
    145  C         36.2760   11.6820   77.2260 C.2   117  PHE117      0.2264
    146  O         37.3440   12.0710   76.7020 O.2   117  PHE117     -0.2867
    147  CB        34.5310   13.3680   76.9660 C.3   117  PHE117      0.0534
    148  CG        33.5310   14.3130   77.5460 C.ar  117  PHE117     -0.0203
    149  CD1       33.9020   15.6770   77.7810 C.ar  117  PHE117     -0.0042
    150  CD2       32.2340   13.9360   77.7640 C.ar  117  PHE117     -0.0042
    151  CE1       33.0520   16.5930   78.2610 C.ar  117  PHE117     -0.0003
    152  CE2       31.3310   14.8950   78.2910 C.ar  117  PHE117     -0.0003
    153  CZ        31.7650   16.2020   78.5420 C.ar  117  PHE117     -0.0000
    154  N         29.6460    7.6790   74.8160 N.3   133  GLU133     -0.1245
    155  CA        30.2900    8.7730   75.5860 C.3   133  GLU133      0.1567
    156  C         30.5040    8.2520   77.0230 C.2   133  GLU133      0.2260
    157  O         29.6110    7.7450   77.6590 O.2   133  GLU133     -0.2867
    158  CB        29.4240   10.0520   75.5990 C.3   133  GLU133      0.0388
    159  CG        29.9540   11.1960   76.4600 C.3   133  GLU133      0.1160
    160  CD        28.8340   12.2070   76.8100 C.2   133  GLU133      0.3649
    161  OE1       27.9310   12.3640   75.9760 O.co2 133  GLU133     -0.2457
    162  OE2       28.9690   12.8870   77.8500 O.co2 133  GLU133     -0.2457
    163  N         32.0990    9.7530   80.7150 N.3   135  MET135     -0.1245
    164  CA        32.6170   10.9050   81.4420 C.3   135  MET135      0.1570
    165  C         32.4750   10.6210   82.9700 C.2   135  MET135      0.2261
    166  O         32.0620    9.5390   83.3590 O.2   135  MET135     -0.2867
    167  CB        31.9040   12.1220   80.9270 C.3   135  MET135      0.0387
    168  CG        30.3590   11.9990   80.9470 C.3   135  MET135      0.0595
    169  SD        29.6330   11.8270   82.5610 S.3   135  MET135     -0.1393
    170  CE        27.9090   12.4310   82.4500 C.3   135  MET135      0.0692
    171  N         29.0290   16.6510   86.1370 N.3   140  GLN140     -0.1245
    172  CA        27.6790   17.0400   85.7070 C.3   140  GLN140      0.1566
    173  C         26.8190   17.3540   86.9000 C.2   140  GLN140      0.2260
    174  O         26.0520   18.3140   86.8870 O.2   140  GLN140     -0.2867
    175  CB        27.0270   16.0280   84.7920 C.3   140  GLN140      0.0367
    176  CG        25.7740   16.5590   84.1420 C.3   140  GLN140      0.0905
    177  CD        25.2340   15.5860   83.1370 C.2   140  GLN140      0.2608
    178  OE1       24.9300   14.4150   83.4860 O.2   140  GLN140     -0.2717
    179  NE2       25.2530   16.0110   81.8210 N.am  140  GLN140     -0.0878
@<TRIPOS>BOND
     1    12    13    1
     2    15    14    2
     3    13    14    1
     4    13    16    1
     5    16    17    1
     6    17    18    1
     7     1     2    1
     8     3     4    2
     9     3     2    1
    10     2     5    1
    11    18    19    1
    12    19    20    2
    13     5     6    1
    14     6     7    1
    15    21    20    1
    16    20    22    1
    17     7     8    1
    18    51    52    1
    19     8     9    2
    20    46    45    2
    21    53    52    1
    22    53    54    2
    23    49    47    1
    24    45    44    1
    25    52    55    1
    26    55    56    1
    27   112   114   ar
    28   112   111   ar
    29     9    10    1
    30     9    11    1
    31   114   115   ar
    32   109   108    2
    33    47    44    1
    34    47    48    1
    35    95    94    2
    36    61    62    1
    37    44    43    1
    38   110   111    1
    39   110   107    1
    40   111   113   ar
    41    56    58   ar
    42    56    57   ar
    43    58    60   ar
    44   106   107    1
    45   108   107    1
    46   115   113   ar
    47   115   117   ar
    48    79    80    1
    49    79    76    1
    50    23    24    1
    51    48    50    1
    52    94    93    1
    53    75    76    1
    54    75    63   am
    55   113   116   ar
    56    77    76    1
    57    77    78    2
    58    62    63    1
    59    62    65    1
    60    57    59   ar
    61    60    59   ar
    62   117   119   ar
    63    92    93    1
    64    63    64    2
    65    84    83    2
    66    98    97   ar
    67    98   100   ar
    68    96    93    1
    69    96    97    1
    70    65    66    1
    71    24    25    1
    72   116   118   ar
    73    97    99   ar
    74   119   118   ar
    75   100   101   ar
    76    83    82    1
    77    26    25    2
    78    25    27   am
    79   154   155    1
    80    66    68   ar
    81    66    67   ar
    82    71    68   ar
    83    71    73   ar
    84    99   101   ar
    85    99   102   ar
    86    85    82    1
    87    85    86    1
    88   101   103   ar
    89    82    81    1
    90    68    70   ar
    91   155   158    1
    92   155   156    1
    93   158   159    1
    94    38    37    2
    95    67    69   ar
    96   161   160   ar
    97    73    74   ar
    98    27    28    1
    99    37    36    1
   100   159   160    1
   101    87    86   ar
   102    87    89   ar
   103   102   104   ar
   104    86    88   ar
   105   146   145    2
   106   103   105   ar
   107   160   162   ar
   108    70    69   ar
   109    70    72   ar
   110   147   148    1
   111   147   144    1
   112   156   157    2
   113    41    39    1
   114    28    29    1
   115    28    31    1
   116   145   144    1
   117    74    72   ar
   118   148   150   ar
   119   148   149   ar
   120    89    91   ar
   121    36    39    1
   122    36    35    1
   123   150   152   ar
   124   149   151   ar
   125   104   105   ar
   126    88    90   ar
   127   144   143    1
   128    29    30    1
   129    39    40    1
   130    31    32    1
   131   151   153   ar
   132   152   153   ar
   133    91    90   ar
   134    33    32    1
   135    32    34    1
   136    40    42    1
   137   129   127   ar
   138   129   130   ar
   139   140   138   ar
   140   140   141   ar
   141   134   133    2
   142   163   164    1
   143   138   136   ar
   144   167   168    1
   145   167   164    1
   146   168   169    1
   147   127   125   ar
   148   130   128   ar
   149   164   165    1
   150   142   141    1
   151   141   139   ar
   152   179   177   am
   153   136   135    1
   154   136   137   ar
   155   133   132    1
   156   135   132    1
   157   120   121    1
   158   121   122    1
   159   121   124    1
   160   125   126   ar
   161   125   124    1
   162   128   126   ar
   163   131   132    1
   164   170   169    1
   165   139   137   ar
   166   122   123    2
   167   165   166    2
   168   177   178    2
   169   177   176    1
   170   176   175    1
   171   175   172    1
   172   172   171    1
   173   172   173    1
   174   174   173    2
