@<TRIPOS>MOLECULE
tmp/3b4yA01.pdb
 123 115 0 0 0
SMALL
GASTEIGER

@<TRIPOS>ATOM
      1  N        -16.2150   27.8830   28.2610 N.3    11  GLU11      -0.1245
      2  CA       -17.5860   27.3270   28.1070 C.3    11  GLU11       0.1567
      3  C        -18.6930   28.3450   27.7620 C.2    11  GLU11       0.2260
      4  O        -19.7210   27.9470   27.2090 O.2    11  GLU11      -0.2867
      5  CB       -18.0160   26.4700   29.3010 C.3    11  GLU11       0.0388
      6  CG       -16.9490   25.5380   29.8220 C.3    11  GLU11       0.1160
      7  CD       -16.1210   26.1550   30.9440 C.2    11  GLU11       0.3649
      8  OE1      -15.6900   27.3300   30.8200 O.co2  11  GLU11      -0.2457
      9  OE2      -15.9150   25.4620   31.9640 O.co2  11  GLU11      -0.2457
     10  N        -11.6960   22.9700   27.2730 N.3    37  HIS37      -0.1241
     11  CA       -12.8150   22.1290   26.8640 C.3    37  HIS37       0.1621
     12  C        -12.7700   21.8640   25.3830 C.2    37  HIS37       0.2264
     13  O        -12.3260   22.6990   24.6020 O.2    37  HIS37      -0.2867
     14  CB       -14.1550   22.8040   27.1780 C.3    37  HIS37       0.0745
     15  CG       -14.6420   22.5480   28.5670 C.ar   37  HIS37       0.0817
     16  ND1      -15.6810   21.8130   29.0270 N.ar   37  HIS37      -0.2268
     17  CD2      -14.0320   23.0850   29.6800 C.ar   37  HIS37       0.1154
     18  CE1      -15.6740   21.9140   30.3970 C.ar   37  HIS37       0.1986
     19  NE2      -14.6700   22.6870   30.7660 N.ar   37  HIS37      -0.2212
     20  N        -20.4300   22.9030   28.8350 N.3    41  TRP41      -0.1241
     21  CA       -21.4180   22.2390   29.6890 C.3    41  TRP41       0.1605
     22  C        -22.8220   22.3050   29.0950 C.2    41  TRP41       0.2264
     23  O        -23.5900   21.3510   29.2180 O.2    41  TRP41      -0.2867
     24  CB       -21.3990   22.8480   31.1000 C.3    41  TRP41       0.0550
     25  CG       -20.0840   22.6850   31.8270 C.ar   41  TRP41       0.0003
     26  CD1      -19.0940   23.6300   31.9460 C.ar   41  TRP41       0.0946
     27  CD2      -19.6200   21.5300   32.5290 C.ar   41  TRP41       0.0152
     28  NE1      -18.0530   23.1340   32.6780 N.ar   41  TRP41      -0.2442
     29  CE2      -18.3470   21.8480   33.0570 C.ar   41  TRP41       0.0810
     30  CE3      -20.1500   20.2520   32.7660 C.ar   41  TRP41       0.0012
     31  CZ2      -17.5870   20.9300   33.7980 C.ar   41  TRP41       0.0191
     32  CZ3      -19.4000   19.3410   33.5230 C.ar   41  TRP41       0.0001
     33  CH2      -18.1290   19.6860   34.0260 C.ar   41  TRP41       0.0015
     34  N        -12.6130   14.7690   32.0800 N.3   103  GLU103     -0.1245
     35  CA       -14.0750   14.6620   32.0880 C.3   103  GLU103      0.1567
     36  C        -14.5640   14.0970   30.7580 C.2   103  GLU103      0.2260
     37  O        -14.1100   14.5390   29.6950 O.2   103  GLU103     -0.2867
     38  CB       -14.7380   16.0110   32.3820 C.3   103  GLU103      0.0388
     39  CG       -13.9590   17.2200   31.8950 C.3   103  GLU103      0.1160
     40  CD       -14.3890   18.5120   32.5910 C.2   103  GLU103      0.3649
     41  OE1      -14.5000   18.5390   33.8480 O.co2 103  GLU103     -0.2457
     42  OE2      -14.6430   19.4830   31.8800 O.co2 103  GLU103     -0.2457
     43  N         -7.2580   18.9510   41.9810 N.3   169  ALA169     -0.1231
     44  CA        -7.7640   17.8320   42.7710 C.3   169  ALA169      0.1694
     45  C         -9.1290   18.1960   43.3460 C.2   169  ALA169      0.2592
     46  O         -9.3210   19.3020   43.8620 O.2   169  ALA169     -0.2718
     47  CB        -6.7780   17.4690   43.8770 C.3   169  ALA169      0.0304
     48  N        -10.0760   17.2700   43.1970 N.am  170  GLY170     -0.1957
     49  CA       -11.3960   17.3600   43.8000 C.3   170  GLY170      0.1869
     50  C        -11.4740   16.5050   45.0540 C.2   170  GLY170      0.2309
     51  O        -12.3970   16.6490   45.8590 O.2   170  GLY170     -0.2863
     52  N        -11.4840   24.2000   43.3880 N.3   188  THR188     -0.1218
     53  CA       -12.5240   25.2350   43.2650 C.3   188  THR188      0.1862
     54  C        -13.2660   25.4050   44.6030 C.2   188  THR188      0.2287
     55  O        -13.2770   24.4890   45.4440 O.2   188  THR188     -0.2866
     56  CB       -13.5070   24.9850   42.0540 C.3   188  THR188      0.1770
     57  OG1      -14.1650   23.7360   42.2060 O.3   188  THR188     -0.2211
     58  CG2      -12.7790   24.9690   40.7220 C.3   188  THR188      0.0375
     59  N        -17.6420   24.1130   47.8570 N.3   191  LYS191     -0.1245
     60  CA       -18.0240   22.7350   48.1270 C.3   191  LYS191      0.1561
     61  C        -17.9780   22.3730   49.6210 C.2   191  LYS191      0.2260
     62  O        -18.0360   21.2040   49.9900 O.2   191  LYS191     -0.2867
     63  CB       -17.2090   21.7670   47.2710 C.3   191  LYS191      0.0271
     64  CG       -17.3880   22.0230   45.7750 C.3   191  LYS191      0.0035
     65  CD       -16.5820   21.0800   44.9200 C.3   191  LYS191      0.0206
     66  CE       -15.1280   21.4630   44.8450 C.3   191  LYS191      0.1093
     67  NZ       -14.3810   20.5040   43.9950 N.3   191  LYS191     -0.1314
     68  N        -10.1730   28.4580   42.2860 N.3   221  GLU221     -0.1245
     69  CA       -11.1650   29.2260   41.5610 C.3   221  GLU221      0.1567
     70  C        -12.3380   29.5590   42.4880 C.2   221  GLU221      0.2260
     71  O        -13.1370   28.6980   42.8500 O.2   221  GLU221     -0.2867
     72  CB       -11.6350   28.5510   40.2780 C.3   221  GLU221      0.0388
     73  CG       -10.5300   28.1560   39.3010 C.3   221  GLU221      0.1160
     74  CD       -11.0730   27.3790   38.1050 C.2   221  GLU221      0.3649
     75  OE1      -10.2680   26.8440   37.3380 O.co2 221  GLU221     -0.2457
     76  OE2      -12.3080   27.2610   37.9260 O.co2 221  GLU221     -0.2457
     77  N        -15.6980   30.8630   43.0190 N.3   223  LYS223     -0.1245
     78  CA       -16.9840   31.0900   42.3810 C.3   223  LYS223      0.1561
     79  C        -17.7250   32.2580   43.0750 C.2   223  LYS223      0.2260
     80  O        -18.2500   32.1210   44.1690 O.2   223  LYS223     -0.2867
     81  CB       -17.7710   29.7710   42.2400 C.3   223  LYS223      0.0271
     82  CG       -17.1190   28.8300   41.1550 C.3   223  LYS223      0.0035
     83  CD       -17.6550   27.3760   41.0170 C.3   223  LYS223      0.0206
     84  CE       -16.6190   26.5750   40.1410 C.3   223  LYS223      0.1093
     85  NZ       -15.6400   27.5620   39.3580 N.3   223  LYS223     -0.1314
     86  N        -22.4970   23.1820   36.8530 N.3   242  LEU242     -0.1245
     87  CA       -21.5050   23.0250   37.9260 C.3   242  LEU242      0.1561
     88  C        -22.1060   22.6660   39.2890 C.2   242  LEU242      0.2260
     89  O        -21.3690   22.3340   40.2330 O.2   242  LEU242     -0.2867
     90  CB       -20.6310   24.2690   38.0390 C.3   242  LEU242      0.0270
     91  CG       -19.3260   24.2850   37.2260 C.3   242  LEU242      0.0019
     92  CD1      -19.3870   23.5570   35.9180 C.3   242  LEU242      0.0001
     93  CD2      -18.8400   25.7160   37.0450 C.3   242  LEU242      0.0001
     94  N        -20.8130   15.4790   36.5280 N.3   249  LYS249     -0.1231
     95  CA       -19.9330   16.4280   35.8260 C.3   249  LYS249      0.1693
     96  C        -18.7670   15.7630   35.0640 C.2   249  LYS249      0.2592
     97  O        -18.3700   16.2600   34.0140 O.2   249  LYS249     -0.2718
     98  CB       -19.4280   17.5510   36.7590 C.3   249  LYS249      0.0285
     99  CG       -20.5120   18.5330   37.2060 C.3   249  LYS249      0.0035
    100  CD       -19.9390   19.6590   38.0220 C.3   249  LYS249      0.0206
    101  CE       -19.4250   19.1680   39.3670 C.3   249  LYS249      0.1093
    102  NZ       -19.2530   20.3020   40.3410 N.3   249  LYS249     -0.1314
    103  N        -18.2540   14.6320   35.5680 N.am  250  HIS250     -0.1976
    104  CA       -17.0830   13.9990   34.9580 C.3   250  HIS250      0.1656
    105  C        -17.3930   12.7700   34.0970 C.2   250  HIS250      0.2291
    106  O        -16.5170   12.2840   33.3930 O.2   250  HIS250     -0.2864
    107  CB       -15.9980   13.6850   36.0100 C.3   250  HIS250      0.0771
    108  CG       -15.7450   14.8050   36.9760 C.ar  250  HIS250      0.0820
    109  ND1      -15.7190   14.8180   38.3300 N.ar  250  HIS250     -0.2267
    110  CD2      -15.4760   16.0980   36.5770 C.ar  250  HIS250      0.1154
    111  CE1      -15.4500   16.1040   38.7200 C.ar  250  HIS250      0.1986
    112  NE2      -15.3100   16.8580   37.6440 N.ar  250  HIS250     -0.2212
    113  N        -23.5860   27.0140   45.3840 N.3   272  ARG272     -0.1245
    114  CA       -22.2070   26.8410   44.9880 C.3   272  ARG272      0.1563
    115  C        -21.4230   28.1740   44.9150 C.2   272  ARG272      0.2260
    116  O        -20.1810   28.1750   44.8900 O.2   272  ARG272     -0.2867
    117  CB       -22.2310   26.1360   43.6340 C.3   272  ARG272      0.0307
    118  CG       -20.9280   25.6280   43.1350 C.3   272  ARG272      0.0489
    119  CD       -20.2960   24.5720   44.0560 C.3   272  ARG272      0.2205
    120  NE       -18.8510   24.5980   43.8120 N.pl3 272  ARG272     -0.0865
    121  CZ       -18.2380   24.1020   42.7330 C.cat 272  ARG272      0.5346
    122  NH1      -18.9280   23.4660   41.7970 N.pl3 272  ARG272      0.1354
    123  NH2      -16.9220   24.2280   42.6110 N.pl3 272  ARG272      0.1354
@<TRIPOS>BOND
     1    13    12    2
     2    12    11    1
     3    11    14    1
     4    11    10    1
     5    14    15    1
     6     4     3    2
     7     3     2    1
     8     2     1    1
     9     2     5    1
    10    15    16   ar
    11    15    17   ar
    12    20    21    1
    13    16    18   ar
    14    22    23    2
    15    22    21    1
    16     5     6    1
    17    17    19   ar
    18    21    24    1
    19    37    36    2
    20     6     7    1
    21    18    19   ar
    22    36    35    1
    23     8     7   ar
    24     7     9   ar
    25    24    25    1
    26    25    26   ar
    27    25    27   ar
    28    42    40   ar
    29    39    38    1
    30    39    40    1
    31    26    28   ar
    32    34    35    1
    33    35    38    1
    34    27    30   ar
    35    27    29   ar
    36    40    41   ar
    37    28    29   ar
    38    30    32   ar
    39    29    31   ar
    40   106   105    2
    41    32    33   ar
    42    31    33   ar
    43    97    96    2
    44   105   104    1
    45   104   103    1
    46   104   107    1
    47    96   103   am
    48    96    95    1
    49    95    94    1
    50    95    98    1
    51    92    91    1
    52   107   108    1
    53   110   108   ar
    54   110   112   ar
    55    98    99    1
    56    86    87    1
    57   108   109   ar
    58    93    91    1
    59    99   100    1
    60    91    90    1
    61    75    74   ar
    62   112   111   ar
    63    76    74   ar
    64    87    90    1
    65    87    88    1
    66   100   101    1
    67    74    73    1
    68   109   111   ar
    69    88    89    2
    70    73    72    1
    71    85    84    1
    72   101   102    1
    73    84    83    1
    74    72    69    1
    75    58    56    1
    76    83    82    1
    77    82    81    1
    78    69    68    1
    79    69    70    1
    80   122   121    1
    81    43    44    1
    82    56    57    1
    83    56    53    1
    84    81    78    1
    85    78    77    1
    86    78    79    1
    87    70    71    2
    88   123   121    1
    89   121   120    2
    90    44    45    1
    91    44    47    1
    92    79    80    2
    93   118   117    1
    94   118   119    1
    95    48    45   am
    96    48    49    1
    97    53    52    1
    98    53    54    1
    99    45    46    2
   100   117   114    1
   101    49    50    1
   102   120   119    1
   103    67    66    1
   104    54    55    2
   105    66    65    1
   106   116   115    2
   107   115   114    1
   108    65    64    1
   109   114   113    1
   110    50    51    2
   111    64    63    1
   112    63    60    1
   113    59    60    1
   114    60    61    1
   115    61    62    2
