@<TRIPOS>MOLECULE
tmp/3b50A00.pdb
 173 161 0 0 0
SMALL
GASTEIGER

@<TRIPOS>ATOM
      1  N         14.0050   -3.5340   -8.6260 N.3    10  ASN10      -0.1225
      2  CA        12.9930   -4.3520   -7.9410 C.3    10  ASN10       0.1785
      3  C         13.6070   -5.5490   -7.2310 C.2    10  ASN10       0.2597
      4  O         13.1300   -5.9700   -6.1820 O.2    10  ASN10      -0.2718
      5  CB        11.9370   -4.8700   -8.9280 C.3    10  ASN10       0.1169
      6  CG        10.8760   -3.8370   -9.2750 C.2    10  ASN10       0.2627
      7  OD1       10.4650   -3.0140   -8.4510 O.2    10  ASN10      -0.2716
      8  ND2       10.3710   -3.9310  -10.5020 N.am   10  ASN10      -0.0877
      9  N         14.6310   -6.1380   -7.8320 N.am   11  ALA11      -0.1979
     10  CA        15.2470   -7.3320   -7.2790 C.3    11  ALA11       0.1597
     11  C         15.8630   -7.0550   -5.9130 C.2    11  ALA11       0.2287
     12  O         16.2580   -5.9220   -5.5980 O.2    11  ALA11      -0.2864
     13  CB        16.3270   -7.8260   -8.2370 C.3    11  ALA11       0.0319
     14  N         20.5420  -10.1960  -10.2050 N.3    17  GLU17      -0.1245
     15  CA        20.5820   -8.8010  -10.5800 C.3    17  GLU17       0.1567
     16  C         21.4070   -7.9550   -9.6200 C.2    17  GLU17       0.2260
     17  O         22.2170   -7.1040  -10.0380 O.2    17  GLU17      -0.2867
     18  CB        19.1540   -8.2500  -10.6050 C.3    17  GLU17       0.0388
     19  CG        18.2270   -8.8520  -11.6630 C.3    17  GLU17       0.1160
     20  CD        17.3130   -9.9590  -11.1100 C.2    17  GLU17       0.3649
     21  OE1       17.8200  -10.8600  -10.3800 O.co2  17  GLU17      -0.2457
     22  OE2       16.0830   -9.9270  -11.3980 O.co2  17  GLU17      -0.2457
     23  N          9.5680   -0.6300  -11.3060 N.3    49  ASP49      -0.1239
     24  CA        10.3440   -0.3100  -12.4740 C.3    49  ASP49       0.1674
     25  C          9.7280    0.7870  -13.3490 C.2    49  ASP49       0.2266
     26  O         10.4580    1.5180  -14.0250 O.2    49  ASP49      -0.2867
     27  CB        10.7220   -1.5710  -13.2830 C.3    49  ASP49       0.1410
     28  CG         9.5330   -2.4720  -13.6320 C.2    49  ASP49       0.3668
     29  OD1        8.5340   -2.5200  -12.8590 O.co2  49  ASP49      -0.2456
     30  OD2        9.6230   -3.1710  -14.6910 O.co2  49  ASP49      -0.2456
     31  N         17.2520   -1.0880  -13.9990 N.3    65  PHE65      -0.1227
     32  CA        17.0020   -2.1920  -14.9020 C.3    65  PHE65       0.1736
     33  C         15.6330   -2.0860  -15.5410 C.2    65  PHE65       0.2595
     34  O         14.7010   -1.6370  -14.9040 O.2    65  PHE65      -0.2718
     35  CB        17.0190   -3.5230  -14.1420 C.3    65  PHE65       0.0547
     36  CG        18.3960   -3.9670  -13.6690 C.ar   65  PHE65      -0.0202
     37  CD1       19.4490   -4.1010  -14.5740 C.ar   65  PHE65      -0.0042
     38  CD2       18.6150   -4.3160  -12.3490 C.ar   65  PHE65      -0.0042
     39  CE1       20.6670   -4.5640  -14.1420 C.ar   65  PHE65      -0.0003
     40  CE2       19.8320   -4.7770  -11.9320 C.ar   65  PHE65      -0.0003
     41  CZ        20.8590   -4.8970  -12.8280 C.ar   65  PHE65      -0.0000
     42  N         15.5130   -2.5560  -16.7810 N.am   66  ALA66      -0.1966
     43  CA        14.2160   -2.7640  -17.4030 C.3    66  ALA66       0.1728
     44  C         14.3390   -3.8260  -18.4570 C.2    66  ALA66       0.2616
     45  O         15.3810   -3.9870  -19.0500 O.2    66  ALA66      -0.2715
     46  CB        13.7220   -1.4680  -18.0130 C.3    66  ALA66       0.0334
     47  N         13.2540   -4.5350  -18.7180 N.am   67  GLU67      -0.1977
     48  CA        13.2010   -5.4390  -19.8510 C.3    67  GLU67       0.1602
     49  C         12.9000   -4.6640  -21.1180 C.2    67  GLU67       0.2287
     50  O         12.2090   -3.6270  -21.0800 O.2    67  GLU67      -0.2864
     51  CB        12.0750   -6.4450  -19.6560 C.3    67  GLU67       0.0415
     52  CG        12.2220   -7.3260  -18.4380 C.3    67  GLU67       0.1163
     53  CD        10.8960   -7.9600  -18.0490 C.2    67  GLU67       0.3649
     54  OE1        9.9010   -7.7450  -18.7660 O.co2  67  GLU67      -0.2457
     55  OE2       10.8460   -8.6200  -17.0160 O.co2  67  GLU67      -0.2457
     56  N         10.7030   -5.5840  -23.1170 N.3    69  ALA69      -0.1231
     57  CA         9.2470   -5.6560  -23.1810 C.3    69  ALA69       0.1694
     58  C          8.5590   -4.5230  -22.4080 C.2    69  ALA69       0.2591
     59  O          7.4080   -4.1890  -22.7090 O.2    69  ALA69      -0.2718
     60  CB         8.7510   -6.9850  -22.6430 C.3    69  ALA69       0.0304
     61  N          9.2270   -3.9730  -21.3920 N.am   70  ARG70      -0.1980
     62  CA         8.6050   -2.9740  -20.5530 C.3    70  ARG70       0.1597
     63  C          8.3240   -1.6990  -21.3740 C.2    70  ARG70       0.2287
     64  O          7.4520   -0.9040  -21.0140 O.2    70  ARG70      -0.2864
     65  CB         9.5080   -2.6580  -19.3570 C.3    70  ARG70       0.0334
     66  CG         8.8680   -1.9270  -18.2000 C.3    70  ARG70       0.0492
     67  CD         7.5440   -2.5470  -17.7990 C.3    70  ARG70       0.2205
     68  NE         7.3330   -2.5960  -16.3680 N.pl3  70  ARG70      -0.0865
     69  CZ         6.1680   -2.8990  -15.7980 C.cat  70  ARG70       0.5346
     70  NH1        5.0650   -3.0520  -16.5500 N.pl3  70  ARG70       0.1354
     71  NH2        6.0980   -2.9840  -14.4700 N.pl3  70  ARG70       0.1354
     72  N          6.7740   -1.5140  -23.9680 N.3    72  GLN72      -0.1245
     73  CA         5.4270   -1.5750  -24.5100 C.3    72  GLN72       0.1566
     74  C          4.5490   -0.4820  -23.8960 C.2    72  GLN72       0.2260
     75  O          3.5120   -0.1280  -24.4670 O.2    72  GLN72      -0.2867
     76  CB         4.7940   -2.9490  -24.2660 C.3    72  GLN72       0.0367
     77  CG         4.3960   -3.2230  -22.8340 C.3    72  GLN72       0.0905
     78  CD         3.8930   -4.6520  -22.6170 C.2    72  GLN72       0.2608
     79  OE1        2.7200   -4.9590  -22.8230 O.2    72  GLN72      -0.2717
     80  NE2        4.7860   -5.5300  -22.2150 N.am   72  GLN72      -0.0878
     81  N         17.7740  -12.5800  -18.1180 N.3   124  ASN124     -0.1240
     82  CA        17.1970  -12.5820  -16.7700 C.3   124  ASN124      0.1653
     83  C         16.2830  -13.7560  -16.4900 C.2   124  ASN124      0.2266
     84  O         15.4930  -13.7330  -15.5720 O.2   124  ASN124     -0.2867
     85  CB        16.4380  -11.2680  -16.5090 C.3   124  ASN124      0.1155
     86  CG        16.6670  -10.7160  -15.1050 C.2   124  ASN124      0.2627
     87  OD1       17.7730  -10.2720  -14.8040 O.2   124  ASN124     -0.2716
     88  ND2       15.6530  -10.7750  -14.2370 N.am  124  ASN124     -0.0877
     89  N         10.5320  -17.4070  -17.6510 N.3   127  ARG127     -0.1245
     90  CA         9.5120  -17.5010  -16.6320 C.3   127  ARG127      0.1563
     91  C          8.8490  -18.8830  -16.5930 C.2   127  ARG127      0.2260
     92  O          8.5900  -19.4720  -17.6490 O.2   127  ARG127     -0.2867
     93  CB         8.4820  -16.4140  -16.8370 C.3   127  ARG127      0.0307
     94  CG         9.1090  -15.0280  -16.8100 C.3   127  ARG127      0.0489
     95  CD         8.1000  -13.9450  -16.9110 C.3   127  ARG127      0.2205
     96  NE         7.4470  -13.5340  -15.6690 N.pl3 127  ARG127     -0.0865
     97  CZ         7.8540  -12.5640  -14.8430 C.cat 127  ARG127      0.5346
     98  NH1        9.0390  -11.9990  -14.9980 N.pl3 127  ARG127      0.1354
     99  NH2        7.0930  -12.1970  -13.8140 N.pl3 127  ARG127      0.1354
    100  N         -1.1230  -14.6360   -9.5840 N.3   147  ARG147     -0.1245
    101  CA        -0.5380  -13.3070   -9.5100 C.3   147  ARG147      0.1563
    102  C          0.2630  -13.0390  -10.7880 C.2   147  ARG147      0.2260
    103  O          0.9770  -13.9180  -11.2680 O.2   147  ARG147     -0.2867
    104  CB         0.3720  -13.1420   -8.3150 C.3   147  ARG147      0.0307
    105  CG         1.0370  -11.7840   -8.2430 C.3   147  ARG147      0.0489
    106  CD         2.3830  -11.7980   -8.9610 C.3   147  ARG147      0.2205
    107  NE         2.9420  -10.4610   -9.0580 N.pl3 147  ARG147     -0.0865
    108  CZ         4.1600  -10.2270   -9.5170 C.cat 147  ARG147      0.5346
    109  NH1        4.6720   -9.0030   -9.4880 N.pl3 147  ARG147      0.1354
    110  NH2        4.8890  -11.2390   -9.9870 N.pl3 147  ARG147      0.1354
    111  N          2.6450   -9.5450  -12.6060 N.3   149  PRO149     -0.2116
    112  CA         3.0540   -8.1490  -12.4770 C.3   149  PRO149      0.1372
    113  C          2.0860   -7.2230  -13.1800 C.2   149  PRO149      0.2244
    114  O          1.2010   -7.6850  -13.8970 O.2   149  PRO149     -0.2868
    115  CB         4.4420   -8.1260  -13.1310 C.3   149  PRO149      0.0268
    116  CG         4.4180   -9.2090  -14.0660 C.3   149  PRO149      0.0207
    117  CD         3.5900  -10.2960  -13.4420 C.3   149  PRO149      0.0892
    118  N          1.7640   -5.6690  -15.8650 N.3   151  ALA151     -0.1245
    119  CA         2.2540   -5.6740  -17.2520 C.3   151  ALA151      0.1562
    120  C          1.2330   -6.3910  -18.1260 C.2   151  ALA151      0.2260
    121  O          0.7810   -7.4840  -17.7870 O.2   151  ALA151     -0.2867
    122  CB         3.6180   -6.3600  -17.3470 C.3   151  ALA151      0.0290
    123  N          1.9380  -10.1340  -19.2570 N.3   154  ASN154     -0.1240
    124  CA         1.7510  -11.1580  -18.2320 C.3   154  ASN154      0.1653
    125  C          0.2690  -11.3700  -17.9230 C.2   154  ASN154      0.2266
    126  O         -0.1620  -12.5190  -17.7120 O.2   154  ASN154     -0.2867
    127  CB         2.5200  -10.8580  -16.9580 C.3   154  ASN154      0.1155
    128  CG         3.9700  -10.5940  -17.2170 C.2   154  ASN154      0.2627
    129  OD1        4.2940   -9.5570  -17.7760 O.2   154  ASN154     -0.2716
    130  ND2        4.8570  -11.5190  -16.8000 N.am  154  ASN154     -0.0877
    131  N          5.8810   -6.6660   -7.3430 N.3   170  PHE170     -0.1241
    132  CA         6.7640   -7.7590   -6.9380 C.3   170  PHE170      0.1605
    133  C          6.9140   -7.8150   -5.4180 C.2   170  PHE170      0.2264
    134  O          6.9170   -8.8960   -4.8170 O.2   170  PHE170     -0.2867
    135  CB         8.1080   -7.5110   -7.5800 C.3   170  PHE170      0.0534
    136  CG         9.0730   -8.6730   -7.5360 C.ar  170  PHE170     -0.0203
    137  CD1        8.7130   -9.9540   -7.9280 C.ar  170  PHE170     -0.0042
    138  CD2       10.4010   -8.4490   -7.1770 C.ar  170  PHE170     -0.0042
    139  CE1        9.6920  -10.9710   -7.9880 C.ar  170  PHE170     -0.0003
    140  CE2       11.3510   -9.4400   -7.2260 C.ar  170  PHE170     -0.0003
    141  CZ        10.9910  -10.7100   -7.6220 C.ar  170  PHE170     -0.0000
    142  N          7.4990  -16.4210  -12.6550 N.3   187  ASN187     -0.1226
    143  CA         8.7840  -15.7240  -12.6100 C.3   187  ASN187      0.1770
    144  C          9.8300  -16.7610  -12.9970 C.2   187  ASN187      0.2439
    145  O          9.5790  -17.9840  -12.9000 O.2   187  ASN187     -0.2733
    146  CB         9.1250  -15.2120  -11.1940 C.3   187  ASN187      0.1168
    147  CG         8.8960  -13.7100  -11.0080 C.2   187  ASN187      0.2627
    148  OD1        7.9980  -13.2950  -10.2400 O.2   187  ASN187     -0.2716
    149  ND2        9.6820  -12.9050  -11.6890 N.am  187  ASN187     -0.0877
    150  N         11.0170  -16.3100  -13.4090 N.am  188  PRO188     -0.2729
    151  CA        12.0700  -17.2780  -13.6440 C.3   188  PRO188      0.1401
    152  C         12.5040  -17.9920  -12.3680 C.2   188  PRO188      0.2269
    153  O         12.2650  -17.5080  -11.2480 O.2   188  PRO188     -0.2865
    154  CB        13.2070  -16.4230  -14.2050 C.3   188  PRO188      0.0296
    155  CG        12.5650  -15.1530  -14.6650 C.3   188  PRO188      0.0237
    156  CD        11.4650  -14.9420  -13.6970 C.3   188  PRO188      0.0939
    157  N         12.7530  -13.3410  -20.3240 N.3   212  ASN212     -0.1240
    158  CA        13.1230  -12.0240  -19.8510 C.3   212  ASN212      0.1653
    159  C         14.5660  -11.7070  -20.1740 C.2   212  ASN212      0.2266
    160  O         15.4650  -12.4930  -19.8520 O.2   212  ASN212     -0.2867
    161  CB        12.9380  -11.9120  -18.3480 C.3   212  ASN212      0.1155
    162  CG        11.4660  -11.8730  -17.9140 C.2   212  ASN212      0.2627
    163  OD1       10.5570  -11.3800  -18.6190 O.2   212  ASN212     -0.2716
    164  ND2       11.2410  -12.3550  -16.7290 N.am  212  ASN212     -0.0877
    165  N         17.2990   -8.1760  -19.6950 N.3   214  GLN214     -0.1245
    166  CA        17.4870   -7.1410  -18.6900 C.3   214  GLN214      0.1566
    167  C         18.4480   -6.0920  -19.2530 C.2   214  GLN214      0.2260
    168  O         19.5830   -6.4120  -19.6090 O.2   214  GLN214     -0.2867
    169  CB        18.0680   -7.7170  -17.4030 C.3   214  GLN214      0.0367
    170  CG        17.7740   -6.9240  -16.1370 C.3   214  GLN214      0.0905
    171  CD        16.4160   -7.2150  -15.5250 C.2   214  GLN214      0.2608
    172  OE1       15.4860   -7.8180  -16.1690 O.2   214  GLN214     -0.2717
    173  NE2       16.2810   -6.8370  -14.2780 N.am  214  GLN214     -0.0878
@<TRIPOS>BOND
     1    73    76    1
     2    73    72    1
     3    73    74    1
     4    75    74    2
     5    76    77    1
     6    57    56    1
     7    57    60    1
     8    57    58    1
     9    77    78    1
    10    79    78    2
    11    59    58    2
    12    78    80   am
    13    58    61   am
    14    61    62    1
    15    63    64    2
    16    63    62    1
    17    49    50    2
    18    49    48    1
    19    62    65    1
    20   157   158    1
    21   159   160    2
    22   159   158    1
    23    48    51    1
    24    48    47    1
    25   158   161    1
    26   165   166    1
    27    51    52    1
    28   168   167    2
    29    65    66    1
    30   123   124    1
    31   167   166    1
    32    45    44    2
    33    54    53   ar
    34    47    44   am
    35   166   169    1
    36   163   162    2
    37    44    43    1
    38    52    53    1
    39   161   162    1
    40   124   125    1
    41   124   127    1
    42    66    67    1
    43   120   121    2
    44   120   119    1
    45    81    82    1
    46    53    55   ar
    47    46    43    1
    48   125   126    2
    49   162   164   am
    50    67    68    1
    51   129   128    2
    52    89    90    1
    53    92    91    2
    54    43    42    1
    55   169   170    1
    56   122   119    1
    57   119   118    1
    58   128   127    1
    59   128   130   am
    60    95    94    1
    61    95    96    1
    62    93    94    1
    63    93    90    1
    64    42    33   am
    65    82    85    1
    66    82    83    1
    67    90    91    1
    68    70    69    1
    69    85    86    1
    70    83    84    2
    71    68    69    2
    72   172   171    2
    73   170   171    1
    74    69    71    1
    75    96    97    2
    76    33    34    2
    77    33    32    1
    78   171   173   am
    79    86    87    2
    80    86    88   am
    81    98    97    1
    82    32    35    1
    83    32    31    1
    84    97    99    1
    85    30    28   ar
    86   155   154    1
    87   155   156    1
    88    37    39   ar
    89    37    36   ar
    90   154   151    1
    91    39    41   ar
    92    35    36    1
    93   116   117    1
    94   116   115    1
    95    26    25    2
    96   114   113    2
    97   156   150    1
    98    36    38   ar
    99   151   150    1
   100   151   152    1
   101    28    27    1
   102    28    29   ar
   103   117   111    1
   104   150   144   am
   105    25    24    1
   106    27    24    1
   107   113   112    1
   108   115   112    1
   109   144   145    2
   110   144   143    1
   111    41    40   ar
   112   142   143    1
   113   143   146    1
   114   111   112    1
   115    24    23    1
   116   152   153    2
   117    38    40   ar
   118   149   147   am
   119    19    20    1
   120    19    18    1
   121    22    20   ar
   122   103   102    2
   123   146   147    1
   124    20    21   ar
   125   147   148    2
   126   102   101    1
   127    18    15    1
   128    15    14    1
   129    15    16    1
   130     8     6   am
   131    17    16    2
   132   110   108    1
   133   100   101    1
   134   108   109    1
   135   108   107    2
   136   101   104    1
   137     6     5    1
   138     6     7    2
   139   107   106    1
   140   106   105    1
   141     5     2    1
   142     1     2    1
   143   104   105    1
   144    13    10    1
   145   139   137   ar
   146   139   141   ar
   147     2     3    1
   148   137   136   ar
   149     9    10    1
   150     9     3   am
   151   141   140   ar
   152   135   136    1
   153   135   132    1
   154   136   138   ar
   155   131   132    1
   156    10    11    1
   157     3     4    2
   158   140   138   ar
   159   132   133    1
   160    11    12    2
   161   133   134    2
