@<TRIPOS>MOLECULE
tmp/3b56A00.pdb
 69 63 0 0 0
SMALL
GASTEIGER

@<TRIPOS>ATOM
      1  N        -20.1990    7.9640   -2.8830 N.3     6  LYS6       -0.1245
      2  CA       -19.2730    6.8160   -2.7910 C.3     6  LYS6        0.1561
      3  C        -18.5660    6.6760   -4.1250 C.2     6  LYS6        0.2260
      4  O        -19.2130    6.7660   -5.1600 O.2     6  LYS6       -0.2867
      5  CB       -20.0260    5.5310   -2.4700 C.3     6  LYS6        0.0271
      6  CG       -19.1400    4.2870   -2.3810 C.3     6  LYS6        0.0035
      7  CD       -19.9400    3.1300   -1.7860 C.3     6  LYS6        0.0206
      8  CE       -19.0270    2.0540   -1.2190 C.3     6  LYS6        0.1093
      9  NZ       -19.7180    1.2670   -0.1540 N.3     6  LYS6       -0.1314
     10  N        -15.5680    4.3790   -6.3440 N.3     8  LEU8       -0.1245
     11  CA       -14.7310    3.1800   -6.4510 C.3     8  LEU8        0.1561
     12  C        -13.8250    3.3200   -7.6670 C.2     8  LEU8        0.2260
     13  O        -14.1670    4.0180   -8.6370 O.2     8  LEU8       -0.2867
     14  CB       -15.6090    1.9310   -6.6000 C.3     8  LEU8        0.0270
     15  CG       -16.4820    1.6040   -5.3870 C.3     8  LEU8        0.0019
     16  CD1      -17.3830    0.4250   -5.7020 C.3     8  LEU8        0.0001
     17  CD2      -15.6330    1.2880   -4.1620 C.3     8  LEU8        0.0001
     18  N        -27.7300    8.0480   -1.8580 N.3    97  THR97      -0.1218
     19  CA       -26.3320    7.6950   -2.0770 C.3    97  THR97       0.1862
     20  C        -26.0600    7.8110   -3.5670 C.2    97  THR97       0.2287
     21  O        -26.7450    7.1860   -4.3690 O.2    97  THR97      -0.2866
     22  CB       -26.0120    6.2750   -1.5900 C.3    97  THR97       0.1770
     23  OG1      -26.1630    6.2280   -0.1620 O.3    97  THR97      -0.2211
     24  CG2      -24.5870    5.8950   -1.9600 C.3    97  THR97       0.0375
     25  N        -23.3170    7.0330   -6.2760 N.3    99  ALA99      -0.1231
     26  CA       -22.1220    6.2080   -6.3480 C.3    99  ALA99       0.1694
     27  C        -21.5420    6.3050   -7.7460 C.2    99  ALA99       0.2592
     28  O        -22.2910    6.5060   -8.7060 O.2    99  ALA99      -0.2718
     29  CB       -22.4520    4.7920   -6.0350 C.3    99  ALA99       0.0304
     30  N        -20.2190    6.1830   -7.8460 N.am  100  ALA100     -0.1966
     31  CA       -19.5340    6.2350   -9.1350 C.3   100  ALA100      0.1728
     32  C        -18.4090    5.2380   -9.1570 C.2   100  ALA100      0.2616
     33  O        -17.7250    5.0730   -8.1560 O.2   100  ALA100     -0.2715
     34  CB       -19.0070    7.6270   -9.3930 C.3   100  ALA100      0.0334
     35  N        -18.2440    4.5760  -10.3040 N.am  101  LEU101     -0.1977
     36  CA       -17.1950    3.5750  -10.5030 C.3   101  LEU101      0.1596
     37  C        -16.3270    4.0780  -11.6480 C.2   101  LEU101      0.2287
     38  O        -16.8230    4.2570  -12.7570 O.2   101  LEU101     -0.2864
     39  CB       -17.8290    2.2280  -10.8410 C.3   101  LEU101      0.0297
     40  CG       -16.8710    1.1020  -11.2730 C.3   101  LEU101      0.0022
     41  CD1      -15.9370    0.6720  -10.1670 C.3   101  LEU101      0.0001
     42  CD2      -17.6950   -0.1010  -11.7230 C.3   101  LEU101      0.0001
     43  N        -19.2690    4.7240  -14.4540 N.3   108  SER108     -0.1202
     44  CA       -20.6560    4.3910  -14.2160 C.3   108  SER108      0.2020
     45  C        -21.1000    5.1370  -12.9830 C.2   108  SER108      0.2619
     46  O        -20.3010    5.4030  -12.0860 O.2   108  SER108     -0.2717
     47  CB       -20.8190    2.8940  -13.9830 C.3   108  SER108      0.2103
     48  OG       -20.4230    2.1360  -15.1350 O.3   108  SER108     -0.2182
     49  N        -22.3770    5.4780  -12.9420 N.am  109  THR109     -0.1938
     50  CA       -22.9350    6.0930  -11.7450 C.3   109  THR109      0.2028
     51  C        -24.3130    5.5370  -11.4730 C.2   109  THR109      0.2642
     52  O        -25.0570    5.2470  -12.4170 O.2   109  THR109     -0.2714
     53  CB       -22.9600    7.6320  -11.8330 C.3   109  THR109      0.1808
     54  OG1      -23.3670    8.1750  -10.5750 O.3   109  THR109     -0.2208
     55  CG2      -23.8990    8.1250  -12.9510 C.3   109  THR109      0.0379
     56  N        -24.6450    5.3630  -10.1960 N.am  110  THR110     -0.1950
     57  CA       -25.9710    4.8980   -9.8360 C.3   110  THR110      0.1897
     58  C        -26.4350    5.6730   -8.6270 C.2   110  THR110      0.2313
     59  O        -25.6250    6.3480   -7.9760 O.2   110  THR110     -0.2863
     60  CB       -26.0210    3.3730   -9.5550 C.3   110  THR110      0.1794
     61  OG1      -27.3940    2.9220   -9.5360 O.3   110  THR110     -0.2208
     62  CG2      -25.3460    3.0390   -8.2370 C.3   110  THR110      0.0378
     63  N        -28.7590    5.1520   -5.0100 N.3   112  VAL112     -0.1245
     64  CA       -29.5390    4.3320   -4.0850 C.3   112  VAL112      0.1561
     65  C        -30.3250    5.3050   -3.2350 C.2   112  VAL112      0.2260
     66  O        -29.7400    6.0820   -2.4820 O.2   112  VAL112     -0.2867
     67  CB       -28.6570    3.4310   -3.2070 C.3   112  VAL112      0.0252
     68  CG1      -29.5100    2.6710   -2.1710 C.3   112  VAL112      0.0019
     69  CG2      -27.8510    2.4640   -4.0840 C.3   112  VAL112      0.0019
@<TRIPOS>BOND
     1    48    47    1
     2    43    44    1
     3    44    47    1
     4    44    45    1
     5    45    49   am
     6    45    46    2
     7    55    53    1
     8    49    50    1
     9    38    37    2
    10    52    51    2
    11    53    50    1
    12    53    54    1
    13    50    51    1
    14    42    40    1
    15    37    36    1
    16    51    56   am
    17    40    39    1
    18    40    41    1
    19    39    36    1
    20    36    35    1
    21    35    32   am
    22    56    57    1
    23    57    60    1
    24    57    58    1
    25    60    61    1
    26    60    62    1
    27    34    31    1
    28    32    31    1
    29    32    33    2
    30    31    30    1
    31    28    27    2
    32    13    12    2
    33    58    59    2
    34    30    27   am
    35    27    26    1
    36    12    11    1
    37    14    11    1
    38    14    15    1
    39    11    10    1
    40    26    25    1
    41    26    29    1
    42    16    15    1
    43    15    17    1
    44     4     3    2
    45    63    64    1
    46    21    20    2
    47     3     2    1
    48    64    65    1
    49    64    67    1
    50    69    67    1
    51    20    19    1
    52    65    66    2
    53    67    68    1
    54     1     2    1
    55     2     5    1
    56     5     6    1
    57     6     7    1
    58    19    18    1
    59    19    22    1
    60    24    22    1
    61     7     8    1
    62    22    23    1
    63     8     9    1
