@<TRIPOS>MOLECULE
tmp/3b5iA00.pdb
 178 176 0 0 0
SMALL
GASTEIGER

@<TRIPOS>ATOM
      1  N          1.3770    5.0520    3.9170 N.3    33  ASP33      -0.1225
      2  CA         1.6100    4.0730    4.9580 C.3    33  ASP33       0.1805
      3  C          0.8740    4.4890    6.2270 C.2    33  ASP33       0.2598
      4  O          1.2660    5.4220    6.9050 O.2    33  ASP33      -0.2718
      5  CB         3.0930    3.8510    5.1970 C.3    33  ASP33       0.1424
      6  CG         3.3770    2.6790    6.1830 C.2    33  ASP33       0.3668
      7  OD1        2.7290    1.6680    6.1960 O.co2  33  ASP33      -0.2456
      8  OD2        4.2770    2.6900    6.9890 O.co2  33  ASP33      -0.2456
      9  N         -0.2140    3.7900    6.5240 N.am   34  LEU34      -0.1966
     10  CA        -1.0740    4.1110    7.6540 C.3    34  LEU34       0.1728
     11  C         -0.6010    3.4570    8.9420 C.2    34  LEU34       0.2617
     12  O         -0.5500    2.2270    9.0660 O.2    34  LEU34      -0.2715
     13  CB        -2.5210    3.6850    7.3770 C.3    34  LEU34       0.0311
     14  CG        -3.2980    4.3210    6.2010 C.3    34  LEU34       0.0022
     15  CD1       -4.4000    3.3520    5.7110 C.3    34  LEU34       0.0001
     16  CD2       -3.8540    5.7500    6.5280 C.3    34  LEU34       0.0001
     17  N         -0.3010    4.2870    9.9300 N.am   35  GLY35      -0.1940
     18  CA         0.2140    3.7910   11.1940 C.3    35  GLY35       0.2014
     19  C          1.6860    3.5240   11.0140 C.2    35  GLY35       0.2639
     20  O          2.2190    2.4670   11.4090 O.2    35  GLY35      -0.2714
     21  N          2.3530    4.4840   10.3960 N.am   36  CYS36      -0.1953
     22  CA         3.7880    4.4040   10.2660 C.3    36  CYS36       0.1843
     23  C          4.3460    4.6760   11.6650 C.2    36  CYS36       0.2626
     24  O          3.6200    4.6860   12.6870 O.2    36  CYS36      -0.2714
     25  CB         4.2830    5.4340    9.2420 C.3    36  CYS36       0.0997
     26  SG         4.2220    7.1220    9.8560 S.3    36  CYS36      -0.0797
     27  N          5.6290    4.8990   11.7710 N.am   37  SER37      -0.1950
     28  CA         6.1100    5.1720   13.0920 C.3    37  SER37       0.1924
     29  C          7.2870    6.0520   12.8240 C.2    37  SER37       0.2314
     30  O          7.1450    7.0290   12.0680 O.2    37  SER37      -0.2863
     31  CB         6.4760    3.8710   13.8020 C.3    37  SER37       0.2116
     32  OG         6.6460    4.0840   15.1740 O.3    37  SER37      -0.2180
     33  N         11.3030    0.4030    9.0670 N.3    41  ASN41      -0.1225
     34  CA        10.2500   -0.4150    8.4620 C.3    41  ASN41       0.1785
     35  C          9.3800    0.4160    7.5070 C.2    41  ASN41       0.2597
     36  O          9.1270   -0.0200    6.3760 O.2    41  ASN41      -0.2718
     37  CB         9.3230   -1.0730    9.5030 C.3    41  ASN41       0.1169
     38  CG        10.0270   -2.1200   10.3970 C.2    41  ASN41       0.2627
     39  OD1       10.8910   -2.8930    9.9600 O.2    41  ASN41      -0.2716
     40  ND2        9.6280   -2.1500   11.6670 N.am   41  ASN41      -0.0877
     41  N          8.9310    1.6060    7.9510 N.am   42  THR42      -0.1953
     42  CA         8.0270    2.4260    7.1230 C.3    42  THR42       0.1897
     43  C          8.6460    2.8440    5.7890 C.2    42  THR42       0.2313
     44  O          7.9940    2.7740    4.7660 O.2    42  THR42      -0.2863
     45  CB         7.4280    3.6570    7.8700 C.3    42  THR42       0.1794
     46  OG1        6.4020    4.2450    7.0560 O.3    42  THR42      -0.2208
     47  CG2        8.4660    4.6920    8.1470 C.3    42  THR42       0.0378
     48  N          9.0980   -0.3450    3.1400 N.3    45  ILE45      -0.1245
     49  CA         7.8990   -0.7090    2.3650 C.3    45  ILE45       0.1561
     50  C          7.4750    0.3610    1.3510 C.2    45  ILE45       0.2260
     51  O          6.9840    0.0160    0.2640 O.2    45  ILE45      -0.2867
     52  CB         6.6600   -1.0740    3.1970 C.3    45  ILE45       0.0252
     53  CG1        6.6210   -0.2690    4.4790 C.3    45  ILE45       0.0019
     54  CG2        6.5870   -2.6030    3.4240 C.3    45  ILE45       0.0019
     55  CD1        5.2590   -0.2660    5.1170 C.3    45  ILE45       0.0001
     56  N          1.5280    8.3010    7.6700 N.3    72  SER72      -0.1202
     57  CA         0.4400    8.7300    8.5080 C.3    72  SER72       0.2020
     58  C          0.4550    8.0350    9.8380 C.2    72  SER72       0.2619
     59  O          0.6320    6.8320    9.9170 O.2    72  SER72      -0.2717
     60  CB        -0.9040    8.5060    7.8160 C.3    72  SER72       0.2103
     61  OG        -1.5890    7.4060    8.3750 O.3    72  SER72      -0.2182
     62  N          0.2560    8.8240   10.8820 N.am   73  ASP73      -0.1959
     63  CA         0.2000    8.3420   12.2530 C.3    73  ASP73       0.1840
     64  C         -0.4100    9.4330   13.1050 C.2    73  ASP73       0.2621
     65  O         -0.6590   10.5580   12.6400 O.2    73  ASP73      -0.2715
     66  CB         1.6080    8.0010   12.7750 C.3    73  ASP73       0.1450
     67  CG         1.5740    6.9850   13.9230 C.2    73  ASP73       0.3671
     68  OD1        1.9160    5.8090   13.7140 O.co2  73  ASP73      -0.2456
     69  OD2        1.1640    7.3490   15.0490 O.co2  73  ASP73      -0.2456
     70  N         -0.6460    9.0890   14.3600 N.am   74  LEU74      -0.1977
     71  CA        -1.1490   10.0230   15.3500 C.3    74  LEU74       0.1596
     72  C         -0.1610   11.1720   15.5540 C.2    74  LEU74       0.2287
     73  O          1.0370   10.9740   15.3660 O.2    74  LEU74      -0.2864
     74  CB        -1.3640    9.2700   16.6590 C.3    74  LEU74       0.0297
     75  CG        -2.4660    8.2050   16.5970 C.3    74  LEU74       0.0022
     76  CD1       -2.4730    7.2570   17.8180 C.3    74  LEU74       0.0001
     77  CD2       -3.7900    8.9050   16.4490 C.3    74  LEU74       0.0001
     78  N          3.1380   10.5930   17.2020 N.3    77  ASN77      -0.1240
     79  CA         4.2200    9.8670   16.5690 C.3    77  ASN77       0.1653
     80  C          5.4640   10.7520   16.5000 C.2    77  ASN77       0.2266
     81  O          5.3580   11.9840   16.5260 O.2    77  ASN77      -0.2867
     82  CB         3.7600    9.4160   15.1810 C.3    77  ASN77       0.1155
     83  CG         4.7880    8.5780   14.4630 C.2    77  ASN77       0.2627
     84  OD1        5.2170    7.5550   14.9860 O.2    77  ASN77      -0.2716
     85  ND2        5.2020    9.0120   13.2660 N.am   77  ASN77      -0.0877
     86  N         -2.8430   12.6920   12.3630 N.3   109  GLY109     -0.1210
     87  CA        -4.2540   12.5070   12.6490 C.3   109  GLY109      0.1956
     88  C         -4.5890   11.0250   12.7630 C.2   109  GLY109      0.2613
     89  O         -3.8120   10.1490   12.3630 O.2   109  GLY109     -0.2717
     90  N         -5.7500   10.7270   13.3220 N.am  110  SER110     -0.1938
     91  CA        -6.1660    9.3580   13.4790 C.3   110  SER110      0.2055
     92  C         -6.7320    8.7990   12.1730 C.2   110  SER110      0.2643
     93  O         -7.5740    9.4270   11.5190 O.2   110  SER110     -0.2714
     94  CB        -7.1910    9.2840   14.5950 C.3   110  SER110      0.2130
     95  OG        -7.7240    7.9760   14.6940 O.3   110  SER110     -0.2179
     96  N         -6.2730    7.6250   11.7640 N.am  111  PHE111     -0.1959
     97  CA        -6.8180    7.0390   10.5240 C.3   111  PHE111      0.1771
     98  C         -8.2100    6.3880   10.7000 C.2   111  PHE111      0.2619
     99  O         -8.7370    5.8020    9.7800 O.2   111  PHE111     -0.2715
    100  CB        -5.8480    6.0540    9.8810 C.3   111  PHE111      0.0574
    101  CG        -5.4720    4.9020   10.7710 C.ar  111  PHE111     -0.0200
    102  CD1       -6.4430    4.2360   11.5310 C.ar  111  PHE111     -0.0042
    103  CD2       -4.1400    4.4550   10.8280 C.ar  111  PHE111     -0.0042
    104  CE1       -6.0890    3.1480   12.3660 C.ar  111  PHE111     -0.0003
    105  CE2       -3.7790    3.3900   11.6610 C.ar  111  PHE111     -0.0003
    106  CZ        -4.7610    2.7320   12.4320 C.ar  111  PHE111     -0.0000
    107  N         -8.7910    6.4890   11.8900 N.am  112  TYR112     -0.1974
    108  CA       -10.1620    6.0670   12.0830 C.3   112  TYR112      0.1639
    109  C        -11.1500    7.1360   11.6110 C.2   112  TYR112      0.2290
    110  O        -12.3360    7.1170   11.9960 O.2   112  TYR112     -0.2864
    111  CB       -10.3920    5.6770   13.5370 C.3   112  TYR112      0.0560
    112  CG        -9.7060    4.3930   13.9030 C.ar  112  TYR112     -0.0198
    113  CD1       -9.9150    3.2340   13.1560 C.ar  112  TYR112     -0.0009
    114  CD2       -8.8490    4.3200   14.9890 C.ar  112  TYR112     -0.0009
    115  CE1       -9.2740    2.0270   13.4900 C.ar  112  TYR112      0.0417
    116  CE2       -8.1980    3.1260   15.3410 C.ar  112  TYR112      0.0417
    117  CZ        -8.4210    1.9920   14.5880 C.ar  112  TYR112      0.1957
    118  OH        -7.7870    0.8190   14.9270 O.3   112  TYR112     -0.2866
    119  N          0.1270   -1.7360    8.4160 N.3   127  ALA127     -0.1231
    120  CA         0.7000   -2.9470    9.0030 C.3   127  ALA127      0.1694
    121  C          0.7420   -2.8080   10.5190 C.2   127  ALA127      0.2592
    122  O          1.2070   -1.8030   11.0350 O.2   127  ALA127     -0.2718
    123  CB         2.1210   -3.2660    8.4090 C.3   127  ALA127      0.0304
    124  N          0.2240   -3.8170   11.2010 N.am  128  PHE128     -0.1962
    125  CA         0.2500   -3.9060   12.6560 C.3   128  PHE128      0.1771
    126  C         -0.0980   -2.6040   13.3080 C.2   128  PHE128      0.2620
    127  O          0.6760   -2.0590   14.1060 O.2   128  PHE128     -0.2715
    128  CB         1.5960   -4.4240   13.1680 C.3   128  PHE128      0.0574
    129  CG         2.1070   -5.5590   12.3830 C.ar  128  PHE128     -0.0200
    130  CD1        1.5160   -6.8130   12.5040 C.ar  128  PHE128     -0.0042
    131  CD2        3.1330   -5.3740   11.4650 C.ar  128  PHE128     -0.0042
    132  CE1        1.9650   -7.8840   11.7340 C.ar  128  PHE128     -0.0003
    133  CE2        3.6000   -6.4400   10.6920 C.ar  128  PHE128     -0.0003
    134  CZ         3.0170   -7.6880   10.8260 C.ar  128  PHE128     -0.0000
    135  N         -1.2690   -2.1130   12.9410 N.am  129  SER129     -0.1950
    136  CA        -1.7900   -0.8900   13.4660 C.3   129  SER129      0.1924
    137  C         -3.2760   -1.0320   13.7680 C.2   129  SER129      0.2314
    138  O         -3.7660   -0.4480   14.7250 O.2   129  SER129     -0.2863
    139  CB        -1.5280    0.2220   12.4490 C.3   129  SER129      0.2116
    140  OG        -0.1250    0.3360   12.2430 O.3   129  SER129     -0.2180
    141  N         -5.0820   -3.1100   15.0420 N.3   131  HIS131     -0.1226
    142  CA        -5.4560   -3.8420   16.2520 C.3   131  HIS131      0.1752
    143  C         -5.4980   -2.9220   17.4780 C.2   131  HIS131      0.2596
    144  O         -5.8490   -3.3470   18.5830 O.2   131  HIS131     -0.2718
    145  CB        -4.4870   -5.0180   16.4780 C.3   131  HIS131      0.0759
    146  CG        -3.0620   -4.5970   16.6300 C.ar  131  HIS131      0.0818
    147  ND1       -2.1730   -5.2650   17.4640 N.ar  131  HIS131     -0.2268
    148  CD2       -2.3790   -3.5450   16.0860 C.ar  131  HIS131      0.1154
    149  CE1       -0.9970   -4.6640   17.4030 C.ar  131  HIS131      0.1986
    150  NE2       -1.0960   -3.6200   16.5650 N.ar  131  HIS131     -0.2212
    151  N         -5.1490   -1.6610   17.2570 N.am  132  TRP132     -0.1962
    152  CA        -5.1850   -0.6230   18.2640 C.3   132  TRP132      0.1771
    153  C         -6.5030    0.0980   18.2640 C.2   132  TRP132      0.2619
    154  O         -6.7670    0.8510   17.3580 O.2   132  TRP132     -0.2715
    155  CB        -4.0960    0.4040   17.9890 C.3   132  TRP132      0.0590
    156  CG        -2.7400   -0.0460   18.3650 C.ar  132  TRP132      0.0006
    157  CD1       -1.7700   -0.4740   17.5230 C.ar  132  TRP132      0.0946
    158  CD2       -2.1930   -0.1080   19.6840 C.ar  132  TRP132      0.0152
    159  NE1       -0.6410   -0.7890   18.2220 N.ar  132  TRP132     -0.2442
    160  CE2       -0.8690   -0.5830   19.5570 C.ar  132  TRP132      0.0810
    161  CE3       -2.6880    0.2010   20.9620 C.ar  132  TRP132      0.0012
    162  CZ2       -0.0270   -0.7760   20.6600 C.ar  132  TRP132      0.0191
    163  CZ3       -1.8460    0.0180   22.0660 C.ar  132  TRP132      0.0001
    164  CH2       -0.5300   -0.4690   21.9010 C.ar  132  TRP132      0.0015
    165  N         -7.3120   -0.1350   19.2940 N.am  133  LEU133     -0.1963
    166  CA        -8.5880    0.5480   19.4730 C.3   133  LEU133      0.1728
    167  C         -8.3880    2.0480   19.4980 C.2   133  LEU133      0.2616
    168  O         -7.3630    2.5520   19.9910 O.2   133  LEU133     -0.2715
    169  CB        -9.2830    0.1030   20.7620 C.3   133  LEU133      0.0311
    170  CG        -9.6060   -1.3880   20.9700 C.3   133  LEU133      0.0022
    171  CD1      -10.1530   -1.6410   22.3720 C.3   133  LEU133      0.0001
    172  CD2      -10.5650   -1.9120   19.9160 C.3   133  LEU133      0.0001
    173  N         -9.3740    2.7520   18.9410 N.am  134  SER134     -0.1950
    174  CA        -9.3790    4.2170   18.9040 C.3   134  SER134      0.1924
    175  C         -9.4420    4.8130   20.3260 C.2   134  SER134      0.2314
    176  O         -9.0600    5.9700   20.5580 O.2   134  SER134     -0.2863
    177  CB       -10.5610    4.7030   18.0700 C.3   134  SER134      0.2116
    178  OG       -11.8030    4.3380   18.6570 O.3   134  SER134     -0.2180
@<TRIPOS>BOND
     1    51    50    2
     2    50    49    1
     3    49    48    1
     4    49    52    1
     5    52    54    1
     6    52    53    1
     7     1     2    1
     8    53    55    1
     9    44    43    2
    10     2     5    1
    11     2     3    1
    12     5     6    1
    13    15    14    1
    14    43    42    1
    15     6     7   ar
    16     6     8   ar
    17    14    16    1
    18    14    13    1
    19     3     9   am
    20     3     4    2
    21    36    35    2
    22     9    10    1
    23    46    45    1
    24    42    45    1
    25    42    41    1
    26    13    10    1
    27    35    41   am
    28    35    34    1
    29    10    11    1
    30    56    57    1
    31    60    61    1
    32    60    57    1
    33    45    47    1
    34   123   120    1
    35   119   120    1
    36    34    33    1
    37    34    37    1
    38    57    58    1
    39    11    12    2
    40    11    17   am
    41   120   121    1
    42    25    26    1
    43    25    22    1
    44    37    38    1
    45    99    98    2
    46    58    59    2
    47    58    62   am
    48   100    97    1
    49   100   101    1
    50    17    18    1
    51    39    38    2
    52    22    21    1
    53    22    23    1
    54    21    19   am
    55    38    40   am
    56   121   122    2
    57   121   124   am
    58    97    98    1
    59    97    96    1
    60   133   134   ar
    61   133   131   ar
    62    98   107   am
    63   101   103   ar
    64   101   102   ar
    65   134   132   ar
    66   103   105   ar
    67    62    63    1
    68    19    18    1
    69    19    20    2
    70   124   125    1
    71   131   129   ar
    72    93    92    2
    73   102   104   ar
    74   109   110    2
    75   109   108    1
    76   105   106   ar
    77    23    27   am
    78    23    24    2
    79   132   130   ar
    80    96    92   am
    81    27    28    1
    82   107   108    1
    83    30    29    2
    84   108   111    1
    85    92    91    1
    86   140   139    1
    87    63    66    1
    88    63    64    1
    89    89    88    2
    90    86    87    1
    91   104   106   ar
    92   129   130   ar
    93   129   128    1
    94   139   136    1
    95    65    64    2
    96    87    88    1
    97   125   128    1
    98   125   126    1
    99    88    90   am
   100    66    67    1
   101    29    28    1
   102   135   126   am
   103   135   136    1
   104    28    31    1
   105    64    70   am
   106   113   115   ar
   107   113   112   ar
   108    85    83   am
   109   126   127    2
   110    90    91    1
   111   136   137    1
   112    91    94    1
   113   115   117   ar
   114   111   112    1
   115    68    67   ar
   116   137   138    2
   117    31    32    1
   118   112   114   ar
   119    67    69   ar
   120    70    71    1
   121    83    84    2
   122    83    82    1
   123   117   118    1
   124   117   116   ar
   125    94    95    1
   126   114   116   ar
   127   141   142    1
   128    82    79    1
   129    71    72    1
   130    71    74    1
   131    73    72    2
   132   148   150   ar
   133   148   146   ar
   134   142   145    1
   135   142   143    1
   136    77    75    1
   137   145   146    1
   138    80    81    2
   139    80    79    1
   140   150   149   ar
   141    79    78    1
   142    75    74    1
   143    75    76    1
   144   146   147   ar
   145   151   143   am
   146   151   152    1
   147   154   153    2
   148   149   147   ar
   149   143   144    2
   150   157   159   ar
   151   157   156   ar
   152   155   152    1
   153   155   156    1
   154   177   178    1
   155   177   174    1
   156   159   160   ar
   157   152   153    1
   158   153   165   am
   159   156   158   ar
   160   174   173    1
   161   174   175    1
   162   173   167   am
   163   165   166    1
   164   166   167    1
   165   166   169    1
   166   167   168    2
   167   160   158   ar
   168   160   162   ar
   169   158   161   ar
   170   172   170    1
   171   175   176    2
   172   162   164   ar
   173   169   170    1
   174   161   163   ar
   175   170   171    1
   176   164   163   ar
