@<TRIPOS>MOLECULE
tmp/3b5jA00.pdb
 115 110 0 0 0
SMALL
GASTEIGER

@<TRIPOS>ATOM
      1  N         34.2660    8.5260   29.6700 N.3    13  TYR13      -0.1227
      2  CA        33.7460    9.7630   29.0810 C.3    13  TYR13       0.1736
      3  C         34.6260   10.9950   29.2790 C.2    13  TYR13       0.2595
      4  O         34.7870   11.7910   28.3580 O.2    13  TYR13      -0.2718
      5  CB        32.3120   10.0140   29.5400 C.3    13  TYR13       0.0548
      6  CG        31.3530    9.1080   28.8200 C.ar   13  TYR13      -0.0200
      7  CD1       30.9750    7.8730   29.3600 C.ar   13  TYR13      -0.0009
      8  CD2       30.8660    9.4560   27.5660 C.ar   13  TYR13      -0.0009
      9  CE1       30.1040    7.0250   28.6660 C.ar   13  TYR13       0.0417
     10  CE2       30.0030    8.6270   26.8810 C.ar   13  TYR13       0.0417
     11  CZ        29.6270    7.4210   27.4280 C.ar   13  TYR13       0.1957
     12  OH        28.7710    6.6210   26.7160 O.3    13  TYR13      -0.2866
     13  N         35.2030   11.1500   30.4610 N.am   14  LYS14      -0.1980
     14  CA        36.0840   12.2900   30.7330 C.3    14  LYS14       0.1596
     15  C         37.4110   11.8080   31.3040 C.2    14  LYS14       0.2287
     16  O         37.4460   10.7620   31.9530 O.2    14  LYS14      -0.2864
     17  CB        35.4060   13.2920   31.6790 C.3    14  LYS14       0.0298
     18  CG        34.3980   14.2060   30.9740 C.3    14  LYS14       0.0038
     19  CD        33.5410   15.0000   31.9560 C.3    14  LYS14       0.0206
     20  CE        32.4470   14.1310   32.5750 C.3    14  LYS14       0.1093
     21  NZ        31.4360   14.9280   33.3240 N.3    14  LYS14      -0.1314
     22  N         35.0030    7.6640   35.5250 N.3    18  PRO18      -0.2116
     23  CA        35.1380    6.2020   35.5920 C.3    18  PRO18       0.1372
     24  C         35.2850    5.4840   34.2460 C.2    18  PRO18       0.2244
     25  O         34.7570    5.9350   33.2240 O.2    18  PRO18      -0.2868
     26  CB        33.8330    5.7590   36.2640 C.3    18  PRO18       0.0268
     27  CG        33.3510    6.9590   36.9950 C.3    18  PRO18       0.0207
     28  CD        33.7300    8.1100   36.1220 C.3    18  PRO18       0.0892
     29  N         34.2520    3.0210   31.6800 N.3    20  ILE20      -0.1245
     30  CA        32.9250    2.5380   31.3130 C.3    20  ILE20       0.1561
     31  C         33.0120    1.2370   30.5290 C.2    20  ILE20       0.2260
     32  O         32.1540    0.3720   30.6580 O.2    20  ILE20      -0.2867
     33  CB        32.1490    3.6060   30.4940 C.3    20  ILE20       0.0252
     34  CG1       31.9340    4.8870   31.3230 C.3    20  ILE20       0.0019
     35  CG2       30.8190    3.0460   29.9490 C.3    20  ILE20       0.0019
     36  CD1       31.6360    4.6510   32.8130 C.3    20  ILE20       0.0001
     37  N         20.9770   -1.7580   33.5170 N.3    40  ALA40      -0.1231
     38  CA        21.1350   -0.3460   33.2180 C.3    40  ALA40       0.1694
     39  C         22.5510    0.0900   33.6100 C.2    40  ALA40       0.2593
     40  O         23.0230   -0.2230   34.7010 O.2    40  ALA40      -0.2718
     41  CB        20.0930    0.4730   33.9550 C.3    40  ALA40       0.0304
     42  N         23.2380    0.7710   32.6970 N.am   41  GLY41      -0.1942
     43  CA        24.5590    1.3240   32.9950 C.3    41  GLY41       0.2014
     44  C         25.7220    0.3690   32.7940 C.2    41  GLY41       0.2640
     45  O         26.8510    0.6910   33.1660 O.2    41  GLY41      -0.2714
     46  N         25.4550   -0.7940   32.2000 N.am   42  SER42      -0.1935
     47  CA        26.4990   -1.7970   31.9610 C.3    42  SER42       0.2055
     48  C         27.4370   -1.4290   30.7930 C.2    42  SER42       0.2644
     49  O         28.5420   -1.9680   30.6820 O.2    42  SER42      -0.2714
     50  CB        25.8980   -3.2020   31.7850 C.3    42  SER42       0.2130
     51  OG        25.1230   -3.2980   30.6040 O.3    42  SER42      -0.2179
     52  N         27.0000   -0.5040   29.9400 N.am   43  GLY43      -0.1939
     53  CA        27.8670    0.0430   28.8880 C.3    43  GLY43       0.2014
     54  C         27.4210   -0.3280   27.4880 C.2    43  GLY43       0.2639
     55  O         28.1840   -0.1940   26.5280 O.2    43  GLY43      -0.2714
     56  N         26.1740   -0.7720   27.3570 N.am   44  LYS44      -0.1963
     57  CA        25.6640   -1.2310   26.0620 C.3    44  LYS44       0.1728
     58  C         25.5610   -0.0870   25.0530 C.2    44  LYS44       0.2617
     59  O         26.0660   -0.2090   23.9320 O.2    44  LYS44      -0.2715
     60  CB        24.3200   -1.9340   26.2080 C.3    44  LYS44       0.0311
     61  CG        24.2180   -2.8970   27.4020 C.3    44  LYS44       0.0038
     62  CD        22.8310   -3.5410   27.4490 C.3    44  LYS44       0.0206
     63  CE        21.7460   -2.5940   27.9300 C.3    44  LYS44       0.1093
     64  NZ        21.9150   -2.1610   29.3550 N.3    44  LYS44      -0.1314
     65  N         24.9410    1.0220   25.4560 N.am   45  SER45      -0.1936
     66  CA        24.8350    2.2010   24.5800 C.3    45  SER45       0.2055
     67  C         26.2120    2.7590   24.2550 C.2    45  SER45       0.2643
     68  O         26.5000    3.0820   23.1000 O.2    45  SER45      -0.2714
     69  CB        23.9820    3.3010   25.2000 C.3    45  SER45       0.2130
     70  OG        23.9560    4.4360   24.3470 O.3    45  SER45      -0.2179
     71  N         27.0610    2.8610   25.2730 N.am   46  THR46      -0.1950
     72  CA        28.4160    3.3640   25.0880 C.3    46  THR46       0.1897
     73  C         29.1330    2.6040   23.9750 C.2    46  THR46       0.2313
     74  O         29.8030    3.2020   23.1320 O.2    46  THR46      -0.2863
     75  CB        29.2000    3.3300   26.4040 C.3    46  THR46       0.1794
     76  OG1       28.5820    4.2410   27.3210 O.3    46  THR46      -0.2208
     77  CG2       30.6410    3.7520   26.1820 C.3    46  THR46       0.0378
     78  N         28.0200    3.8530   20.5950 N.3    49  LYS49      -0.1245
     79  CA        28.5380    5.1950   20.3860 C.3    49  LYS49       0.1561
     80  C         29.9410    5.1290   19.7950 C.2    49  LYS49       0.2260
     81  O         30.2700    5.9100   18.9130 O.2    49  LYS49      -0.2867
     82  CB        28.5760    5.9750   21.6990 C.3    49  LYS49       0.0271
     83  CG        27.2130    6.2820   22.2840 C.3    49  LYS49       0.0035
     84  CD        27.3880    6.9860   23.6180 C.3    49  LYS49       0.0206
     85  CE        26.1330    6.9270   24.4570 C.3    49  LYS49       0.1093
     86  NZ        26.3540    7.6400   25.7490 N.3    49  LYS49      -0.1314
     87  N         32.7420    8.9720   20.2130 N.3    55  TYR55      -0.1241
     88  CA        33.8080    9.1050   21.1810 C.3    55  TYR55       0.1605
     89  C         34.9820    8.2470   20.7520 C.2    55  TYR55       0.2264
     90  O         34.8390    7.3380   19.9220 O.2    55  TYR55      -0.2867
     91  CB        33.3370    8.6870   22.5730 C.3    55  TYR55       0.0534
     92  CG        32.2490    9.5690   23.1510 C.ar   55  TYR55      -0.0201
     93  CD1       32.5690   10.7190   23.8720 C.ar   55  TYR55      -0.0009
     94  CD2       30.9030    9.2470   22.9800 C.ar   55  TYR55      -0.0009
     95  CE1       31.5680   11.5300   24.4140 C.ar   55  TYR55       0.0417
     96  CE2       29.9000   10.0470   23.5140 C.ar   55  TYR55       0.0417
     97  CZ        30.2410   11.1840   24.2260 C.ar   55  TYR55       0.1957
     98  OH        29.2480   11.9680   24.7540 O.3    55  TYR55      -0.2866
     99  N         18.2320    1.0550   22.6100 N.3   167  GLU167     -0.1245
    100  CA        17.3510    0.4040   23.5750 C.3   167  GLU167      0.1567
    101  C         15.9650    1.0580   23.5910 C.2   167  GLU167      0.2260
    102  O         15.8430    2.2840   23.5480 O.2   167  GLU167     -0.2867
    103  CB        17.9920    0.4210   24.9670 C.3   167  GLU167      0.0388
    104  CG        17.1420   -0.1680   26.0880 C.3   167  GLU167      0.1160
    105  CD        17.8260   -0.1270   27.4440 C.2   167  GLU167      0.3649
    106  OE1       19.0660   -0.0010   27.4900 O.co2 167  GLU167     -0.2457
    107  OE2       17.1200   -0.2320   28.4710 O.co2 167  GLU167     -0.2457
    108  N         20.2130   -3.3280   21.1140 N.3   196  ILE196     -0.1245
    109  CA        20.3420   -3.1880   22.5530 C.3   196  ILE196      0.1561
    110  C         18.9700   -3.4630   23.1590 C.2   196  ILE196      0.2260
    111  O         18.0140   -2.7060   22.9480 O.2   196  ILE196     -0.2867
    112  CB        20.8720   -1.8020   22.9700 C.3   196  ILE196      0.0252
    113  CG1       22.2770   -1.5850   22.4010 C.3   196  ILE196      0.0019
    114  CG2       20.8820   -1.6890   24.4930 C.3   196  ILE196      0.0019
    115  CD1       22.8260   -0.1950   22.6450 C.3   196  ILE196      0.0001
@<TRIPOS>BOND
     1    81    80    2
     2    80    79    1
     3    90    89    2
     4    87    88    1
     5    79    78    1
     6    79    82    1
     7    89    88    1
     8   108   109    1
     9    88    91    1
    10    82    83    1
    11    83    84    1
    12   113   115    1
    13   113   112    1
    14   109   112    1
    15   109   110    1
    16    91    92    1
    17    99   100    1
    18   111   110    2
    19   112   114    1
    20    94    92   ar
    21    94    96   ar
    22    68    67    2
    23    74    73    2
    24    92    93   ar
    25    96    97   ar
    26   102   101    2
    27   100   101    1
    28   100   103    1
    29    84    85    1
    30    93    95   ar
    31    59    58    2
    32    73    72    1
    33    97    95   ar
    34    97    98    1
    35    67    66    1
    36    67    71   am
    37    70    69    1
    38    85    86    1
    39    66    69    1
    40    66    65    1
    41   103   104    1
    42    58    65   am
    43    58    57    1
    44    72    71    1
    45    72    75    1
    46    57    60    1
    47    57    56    1
    48   104   105    1
    49    77    75    1
    50    60    61    1
    51    75    76    1
    52    55    54    2
    53    12    11    1
    54    10    11   ar
    55    10     8   ar
    56    56    54   am
    57    61    62    1
    58    11     9   ar
    59   105   106   ar
    60   105   107   ar
    61    62    63    1
    62    54    53    1
    63     8     6   ar
    64    63    64    1
    65     4     3    2
    66     9     7   ar
    67     6     7   ar
    68     6     5    1
    69    53    52    1
    70     2     3    1
    71     2     5    1
    72     2     1    1
    73     3    13   am
    74    52    48   am
    75    35    33    1
    76    13    14    1
    77    33    30    1
    78    33    34    1
    79    31    32    2
    80    31    30    1
    81    51    50    1
    82    49    48    2
    83    14    15    1
    84    14    17    1
    85    48    47    1
    86    18    17    1
    87    18    19    1
    88    15    16    2
    89    30    29    1
    90    34    36    1
    91    50    47    1
    92    19    20    1
    93    47    46    1
    94    46    44   am
    95    20    21    1
    96    42    43    1
    97    42    39   am
    98    44    43    1
    99    44    45    2
   100    38    37    1
   101    38    39    1
   102    38    41    1
   103    25    24    2
   104    39    40    2
   105    24    23    1
   106    22    23    1
   107    22    28    1
   108    23    26    1
   109    28    27    1
   110    26    27    1
