@<TRIPOS>MOLECULE
tmp/3b5qB02.pdb
 142 133 0 0 0
SMALL
GASTEIGER

@<TRIPOS>ATOM
      1  N         69.8020   59.9470   53.5930 N.3    11  ASP11      -0.1239
      2  CA        70.4540   60.0340   54.8740 C.3    11  ASP11       0.1674
      3  C         70.4020   58.6300   55.5260 C.2    11  ASP11       0.2266
      4  O         69.2920   58.0730   55.7730 O.2    11  ASP11      -0.2867
      5  CB        69.7060   61.0910   55.7240 C.3    11  ASP11       0.1410
      6  CG        70.6080   61.8010   56.7400 C.2    11  ASP11       0.3668
      7  OD1       71.3480   62.7450   56.3780 O.co2  11  ASP11      -0.2456
      8  OD2       70.5400   61.4470   57.9190 O.co2  11  ASP11      -0.2456
      9  N         78.8340   61.7130   59.6380 N.3    50  LEU50      -0.1231
     10  CA        77.8930   62.5910   60.3650 C.3    50  LEU50       0.1693
     11  C         77.3820   63.5770   59.3570 C.2    50  LEU50       0.2592
     12  O         78.1100   63.9810   58.4540 O.2    50  LEU50      -0.2718
     13  CB        78.5780   63.3010   61.5220 C.3    50  LEU50       0.0284
     14  CG        77.6970   63.9850   62.5690 C.3    50  LEU50       0.0019
     15  CD1       76.9350   62.9860   63.4320 C.3    50  LEU50       0.0001
     16  CD2       78.5600   64.8640   63.4400 C.3    50  LEU50       0.0001
     17  N         76.1100   63.9190   59.4690 N.am   51  SER51      -0.1952
     18  CA        75.4210   64.6140   58.4000 C.3    51  SER51       0.1924
     19  C         76.0210   65.9350   58.0060 C.2    51  SER51       0.2314
     20  O         76.3310   66.1250   56.8430 O.2    51  SER51      -0.2863
     21  CB        73.9640   64.8150   58.7580 C.3    51  SER51       0.2116
     22  OG        73.3000   65.5800   57.7730 O.3    51  SER51      -0.2180
     23  N         77.8870   68.5810   64.1320 N.3    70  ASN70      -0.1240
     24  CA        76.5520   69.0220   63.7600 C.3    70  ASN70       0.1653
     25  C         76.1630   70.3330   64.4420 C.2    70  ASN70       0.2266
     26  O         75.0580   70.8390   64.2300 O.2    70  ASN70      -0.2867
     27  CB        75.5080   67.9500   64.1070 C.3    70  ASN70       0.1155
     28  CG        75.3090   66.9080   63.0020 C.2    70  ASN70       0.2627
     29  OD1       76.0010   66.8860   61.9560 O.2    70  ASN70      -0.2716
     30  ND2       74.3910   66.0120   63.2520 N.am   70  ASN70      -0.0877
     31  N         66.6230   68.0620   52.2970 N.3   102  LYS102     -0.1245
     32  CA        67.4640   68.3550   53.4220 C.3   102  LYS102      0.1561
     33  C         68.6710   69.1350   52.9850 C.2   102  LYS102      0.2260
     34  O         69.3130   68.7650   52.0430 O.2   102  LYS102     -0.2867
     35  CB        67.9320   67.0400   54.0650 C.3   102  LYS102      0.0271
     36  CG        68.8840   67.2350   55.2630 C.3   102  LYS102      0.0035
     37  CD        68.9640   65.9980   56.0970 C.3   102  LYS102      0.0206
     38  CE        70.1380   66.0240   56.9920 C.3   102  LYS102      0.1093
     39  NZ        70.1430   64.8230   57.8440 N.3   102  LYS102     -0.1314
     40  N         71.4070   71.1640   55.5070 N.3   104  HIS104     -0.1241
     41  CA        72.3660   70.7610   56.5490 C.3   104  HIS104      0.1621
     42  C         73.8000   70.9000   56.0560 C.2   104  HIS104      0.2264
     43  O         74.6670   70.0970   56.3670 O.2   104  HIS104     -0.2867
     44  CB        72.0680   69.3390   57.0520 C.3   104  HIS104      0.0745
     45  CG        72.3720   69.1160   58.5120 C.ar  104  HIS104      0.0817
     46  ND1       72.7130   67.8780   59.0200 N.ar  104  HIS104     -0.2268
     47  CD2       72.3190   69.9530   59.5820 C.ar  104  HIS104      0.1154
     48  CE1       72.8740   67.9700   60.3320 C.ar  104  HIS104      0.1986
     49  NE2       72.6570   69.2210   60.6960 N.ar  104  HIS104     -0.2212
     50  N         65.4860   62.3240   53.5790 N.3   161  GLN161     -0.1245
     51  CA        65.7810   62.0360   54.9900 C.3   161  GLN161      0.1566
     52  C         65.8910   60.5420   55.3010 C.2   161  GLN161      0.2260
     53  O         66.8490   60.1070   55.9150 O.2   161  GLN161     -0.2867
     54  CB        64.6920   62.5910   55.8590 C.3   161  GLN161      0.0367
     55  CG        64.5780   64.0870   55.7890 C.3   161  GLN161      0.0905
     56  CD        65.3430   64.7690   56.8940 C.2   161  GLN161      0.2608
     57  OE1       66.0240   64.1290   57.7410 O.2   161  GLN161     -0.2717
     58  NE2       65.2420   66.0780   56.9040 N.am  161  GLN161     -0.0878
     59  N         66.7970   57.8130   57.8580 N.3   164  HIS164     -0.1241
     60  CA        67.0330   58.4960   59.1340 C.3   164  HIS164      0.1621
     61  C         65.9170   58.3680   60.1730 C.2   164  HIS164      0.2264
     62  O         66.1660   58.5410   61.3680 O.2   164  HIS164     -0.2867
     63  CB        67.2820   60.0000   58.8410 C.3   164  HIS164      0.0745
     64  CG        67.5890   60.8340   60.0410 C.ar  164  HIS164      0.0817
     65  ND1       66.6070   61.3580   60.8590 N.ar  164  HIS164     -0.2268
     66  CD2       68.7670   61.2820   60.5340 C.ar  164  HIS164      0.1154
     67  CE1       67.1690   62.0720   61.8150 C.ar  164  HIS164      0.1986
     68  NE2       68.4770   62.0450   61.6380 N.ar  164  HIS164     -0.2212
     69  N         66.3620   56.7570   63.7000 N.3   167  CYS167     -0.1235
     70  CA        66.6700   57.4350   64.9520 C.3   167  CYS167      0.1677
     71  C         65.4570   57.5600   65.8570 C.2   167  CYS167      0.2270
     72  O         65.5290   57.2290   67.0210 O.2   167  CYS167     -0.2867
     73  CB        67.1670   58.8170   64.6680 C.3   167  CYS167      0.0956
     74  SG        68.6660   58.8050   63.8130 S.3   167  CYS167     -0.0801
     75  N         77.0320   58.6340   72.8860 N.3   212  HIS212     -0.1226
     76  CA        76.0830   58.6460   71.7470 C.3   212  HIS212      0.1752
     77  C         74.7160   58.2580   72.2770 C.2   212  HIS212      0.2596
     78  O         74.5110   57.1380   72.7470 O.2   212  HIS212     -0.2718
     79  CB        76.5510   57.6390   70.6650 C.3   212  HIS212      0.0759
     80  CG        75.6010   57.4620   69.5030 C.ar  212  HIS212      0.0818
     81  ND1       74.8430   58.4890   68.9780 N.ar  212  HIS212     -0.2268
     82  CD2       75.3290   56.3750   68.7430 C.ar  212  HIS212      0.1154
     83  CE1       74.1320   58.0360   67.9650 C.ar  212  HIS212      0.1986
     84  NE2       74.4050   56.7560   67.8020 N.ar  212  HIS212     -0.2212
     85  N         73.7900   59.2020   72.2250 N.am  213  ARG213     -0.1966
     86  CA        72.5160   59.0590   72.9090 C.3   213  ARG213      0.1729
     87  C         71.8130   57.8000   72.4930 C.2   213  ARG213      0.2616
     88  O         71.1970   57.1170   73.3170 O.2   213  ARG213     -0.2715
     89  CB        71.5930   60.2570   72.6390 C.3   213  ARG213      0.0348
     90  CG        70.1240   59.8320   72.4750 C.3   213  ARG213      0.0492
     91  CD        69.1430   60.9470   72.5980 C.3   213  ARG213      0.2205
     92  NE        69.2190   61.8640   71.4640 N.pl3 213  ARG213     -0.0865
     93  CZ        68.1810   62.5200   70.9690 C.cat 213  ARG213      0.5346
     94  NH1       66.9690   62.3630   71.4890 N.pl3 213  ARG213      0.1354
     95  NH2       68.3550   63.3490   69.9530 N.pl3 213  ARG213      0.1354
     96  N         71.8510   57.5170   71.2010 N.am  214  ARG214     -0.1977
     97  CA        71.0830   56.4200   70.6630 C.3   214  ARG214      0.1597
     98  C         71.6830   55.0860   71.0670 C.2   214  ARG214      0.2287
     99  O         70.9690   54.0910   71.1360 O.2   214  ARG214     -0.2864
    100  CB        71.0080   56.5280   69.1560 C.3   214  ARG214      0.0334
    101  CG        70.2670   57.7440   68.6300 C.3   214  ARG214      0.0492
    102  CD        68.8450   57.7640   69.0060 C.3   214  ARG214      0.2205
    103  NE        68.1980   58.9190   68.4320 N.pl3 214  ARG214     -0.0865
    104  CZ        67.0360   59.4050   68.8360 C.cat 214  ARG214      0.5346
    105  NH1       66.3390   58.8230   69.8120 N.pl3 214  ARG214      0.1354
    106  NH2       66.5620   60.4670   68.2330 N.pl3 214  ARG214      0.1354
    107  N         73.1770   53.5150   64.3600 N.3   274  THR274     -0.1203
    108  CA        73.2570   54.8650   63.8670 C.3   274  THR274      0.1994
    109  C         74.7320   55.1730   63.5380 C.2   274  THR274      0.2617
    110  O         75.3900   54.3610   62.9310 O.2   274  THR274     -0.2717
    111  CB        72.5070   55.7890   64.8820 C.3   274  THR274      0.1784
    112  OG1       71.1590   56.0310   64.4230 O.3   274  THR274     -0.2211
    113  CG2       73.1640   56.9670   65.0820 C.3   274  THR274      0.0376
    114  N         75.2460   56.3200   63.9370 N.am  275  LYS275     -0.1979
    115  CA        76.5750   56.7180   63.5980 C.3   275  LYS275      0.1596
    116  C         77.0760   57.6490   64.7100 C.2   275  LYS275      0.2287
    117  O         76.3050   58.4120   65.2560 O.2   275  LYS275     -0.2864
    118  CB        76.6200   57.3940   62.2140 C.3   275  LYS275      0.0298
    119  CG        76.0030   58.8110   62.1000 C.3   275  LYS275      0.0038
    120  CD        74.4720   58.8210   62.4250 C.3   275  LYS275      0.0206
    121  CE        73.8450   60.2180   62.4020 C.3   275  LYS275      0.1093
    122  NZ        72.3760   60.1690   62.7950 N.3   275  LYS275     -0.1314
    123  N         80.0590   65.2030   67.7940 N.3   356  GLU356     -0.1245
    124  CA        78.7220   65.3500   67.2470 C.3   356  GLU356      0.1567
    125  C         78.0740   66.6960   67.5840 C.2   356  GLU356      0.2260
    126  O         77.7450   67.4540   66.6720 O.2   356  GLU356     -0.2867
    127  CB        77.7990   64.2270   67.7070 C.3   356  GLU356      0.0388
    128  CG        76.3910   64.3640   67.1040 C.3   356  GLU356      0.1160
    129  CD        75.5370   63.0960   67.2110 C.2   356  GLU356      0.3649
    130  OE1       75.9560   62.1340   67.9120 O.co2 356  GLU356     -0.2457
    131  OE2       74.4500   63.0760   66.5700 O.co2 356  GLU356     -0.2457
    132  N         74.8260   63.4760   77.1050 N.3   451  ARG451     -0.1245
    133  CA        73.8060   64.4680   76.8080 C.3   451  ARG451      0.1563
    134  C         73.0270   64.8730   78.0750 C.2   451  ARG451      0.2260
    135  O         72.7340   66.0500   78.2550 O.2   451  ARG451     -0.2867
    136  CB        72.8610   63.9690   75.6940 C.3   451  ARG451      0.0307
    137  CG        72.2450   65.0990   74.8240 C.3   451  ARG451      0.0489
    138  CD        72.1570   64.7260   73.3260 C.3   451  ARG451      0.2205
    139  NE        73.4200   64.1760   72.8350 N.pl3 451  ARG451     -0.0865
    140  CZ        73.6210   63.7310   71.6020 C.cat 451  ARG451      0.5346
    141  NH1       72.6360   63.7900   70.7000 N.pl3 451  ARG451      0.1354
    142  NH2       74.8170   63.2210   71.2810 N.pl3 451  ARG451      0.1354
@<TRIPOS>BOND
     1    34    33    2
     2    31    32    1
     3    33    32    1
     4    32    35    1
     5    50    51    1
     6     1     2    1
     7    35    36    1
     8     2     3    1
     9     2     5    1
    10    51    52    1
    11    51    54    1
    12    36    37    1
    13    52    53    2
    14    40    41    1
    15     3     4    2
    16     5     6    1
    17    55    54    1
    18    55    56    1
    19    42    43    2
    20    42    41    1
    21    37    38    1
    22     7     6   ar
    23    41    44    1
    24     6     8   ar
    25    20    19    2
    26    56    58   am
    27    56    57    2
    28    38    39    1
    29    44    45    1
    30    22    21    1
    31    59    60    1
    32    19    18    1
    33    18    21    1
    34    18    17    1
    35    12    11    2
    36    45    46   ar
    37    45    47   ar
    38    63    60    1
    39    63    64    1
    40    46    48   ar
    41    60    61    1
    42    11    17   am
    43    11    10    1
    44    47    49   ar
    45     9    10    1
    46    64    66   ar
    47    64    65   ar
    48    61    62    2
    49    48    49   ar
    50    10    13    1
    51    66    68   ar
    52    65    67   ar
    53    13    14    1
    54    68    67   ar
    55    29    28    2
    56   119   118    1
    57   119   120    1
    58   118   115    1
    59   121   120    1
    60   121   122    1
    61    14    15    1
    62    14    16    1
    63   110   109    2
    64    28    30   am
    65    28    27    1
    66   109   108    1
    67   109   114   am
    68   115   114    1
    69   115   116    1
    70    69    70    1
    71    24    27    1
    72    24    23    1
    73    24    25    1
    74    74    73    1
    75   108   107    1
    76   108   111    1
    77    26    25    2
    78   112   111    1
    79    73    70    1
    80   116   117    2
    81   111   113    1
    82    70    71    1
    83    71    72    2
    84   131   129   ar
    85   126   125    2
    86   128   129    1
    87   128   127    1
    88   129   130   ar
    89   124   125    1
    90   124   127    1
    91   124   123    1
    92    84    83   ar
    93    84    82   ar
    94    83    81   ar
    95   106   104    1
    96   103   104    2
    97   103   102    1
    98   101   102    1
    99   101   100    1
   100    82    80   ar
   101   104   105    1
   102    81    80   ar
   103   100    97    1
   104    80    79    1
   105    95    93    1
   106    97    98    1
   107    97    96    1
   108    79    76    1
   109   141   140    1
   110    93    92    2
   111    93    94    1
   112    98    99    2
   113    96    87   am
   114   142   140    1
   115    92    91    1
   116   140   139    2
   117    76    77    1
   118    76    75    1
   119    85    77   am
   120    85    86    1
   121    77    78    2
   122    90    91    1
   123    90    89    1
   124    87    86    1
   125    87    88    2
   126    89    86    1
   127   139   138    1
   128   138   137    1
   129   137   136    1
   130   136   133    1
   131   133   132    1
   132   133   134    1
   133   134   135    2
