@<TRIPOS>MOLECULE
tmp/3b5rA00.pdb
 220 206 0 0 0
SMALL
GASTEIGER

@<TRIPOS>ATOM
      1  N         32.3740    0.3360   -3.6780 N.3    31  LEU31      -0.1245
      2  CA        32.5250    0.0100   -2.2670 C.3    31  LEU31       0.1561
      3  C         33.5610    0.8740   -1.5480 C.2    31  LEU31       0.2260
      4  O         33.3660    1.2550   -0.3950 O.2    31  LEU31      -0.2867
      5  CB        32.8530   -1.4750   -2.1010 C.3    31  LEU31       0.0270
      6  CG        31.6370   -2.3090   -1.6700 C.3    31  LEU31       0.0019
      7  CD1       31.2080   -1.8620   -0.2730 C.3    31  LEU31       0.0001
      8  CD2       30.4770   -2.1430   -2.6720 C.3    31  LEU31       0.0001
      9  N         31.8640    3.9510   -0.9240 N.3    34  LEU34      -0.1231
     10  CA        30.8780    3.8160    0.1370 C.3    34  LEU34       0.1693
     11  C         31.6200    3.8310    1.4680 C.2    34  LEU34       0.2592
     12  O         31.1710    4.4620    2.4230 O.2    34  LEU34      -0.2718
     13  CB        30.0640    2.5190   -0.0120 C.3    34  LEU34       0.0284
     14  CG        28.9200    2.5640   -1.0410 C.3    34  LEU34       0.0019
     15  CD1       28.2250    1.2030   -1.1340 C.3    34  LEU34       0.0001
     16  CD2       27.9260    3.6430   -0.6360 C.3    34  LEU34       0.0001
     17  N         32.7690    3.1560    1.5260 N.am   35  ASN35      -0.1974
     18  CA        33.5540    3.1260    2.7570 C.3    35  ASN35       0.1688
     19  C         34.0040    4.5330    3.1310 C.2    35  ASN35       0.2292
     20  O         33.8200    4.9610    4.2690 O.2    35  ASN35      -0.2864
     21  CB        34.7850    2.2240    2.6170 C.3    35  ASN35       0.1181
     22  CG        34.4360    0.7460    2.6150 C.2    35  ASN35       0.2629
     23  OD1       33.3750    0.3440    3.0890 O.2    35  ASN35      -0.2716
     24  ND2       35.3470   -0.0750    2.0990 N.am   35  ASN35      -0.0877
     25  N         32.8030    7.4300    2.0790 N.3    37  LEU37      -0.1231
     26  CA        31.6450    8.2570    2.4130 C.3    37  LEU37       0.1693
     27  C         31.1970    7.9910    3.8470 C.2    37  LEU37       0.2592
     28  O         30.9550    8.9240    4.6090 O.2    37  LEU37      -0.2718
     29  CB        30.4770    7.9860    1.4590 C.3    37  LEU37       0.0284
     30  CG        29.1880    8.7720    1.7310 C.3    37  LEU37       0.0019
     31  CD1       29.4610   10.2800    1.7310 C.3    37  LEU37       0.0001
     32  CD2       28.1600    8.4200    0.6660 C.3    37  LEU37       0.0001
     33  N         31.0910    6.7150    4.2080 N.am   38  GLY38      -0.1957
     34  CA        30.6640    6.3580    5.5510 C.3    38  GLY38       0.1869
     35  C         31.5360    7.0010    6.6050 C.2    38  GLY38       0.2309
     36  O         31.0510    7.5370    7.5990 O.2    38  GLY38      -0.2863
     37  N         30.9480   10.8040    6.8210 N.3    41  GLN41      -0.1245
     38  CA        29.7140   11.1090    7.5370 C.3    41  GLN41       0.1566
     39  C         29.8770   10.8950    9.0440 C.2    41  GLN41       0.2260
     40  O         29.2640   11.6030    9.8400 O.2    41  GLN41      -0.2867
     41  CB        28.5450   10.2720    6.9900 C.3    41  GLN41       0.0367
     42  CG        28.1660   10.6630    5.5640 C.3    41  GLN41       0.0905
     43  CD        26.8770   10.0400    5.0650 C.2    41  GLN41       0.2608
     44  OE1       26.6110   10.0470    3.8610 O.2    41  GLN41      -0.2717
     45  NE2       26.0570    9.5120    5.9820 N.am   41  GLN41      -0.0878
     46  N         28.9590    4.7140   17.7270 N.3    68  GLN68      -0.1245
     47  CA        29.4440    3.6250   16.8910 C.3    68  GLN68       0.1566
     48  C         28.3670    2.5710   16.5850 C.2    68  GLN68       0.2260
     49  O         28.2970    2.0830   15.4590 O.2    68  GLN68      -0.2867
     50  CB        30.6760    2.9760   17.5350 C.3    68  GLN68       0.0367
     51  CG        31.7910    3.9830   17.8380 C.3    68  GLN68       0.0905
     52  CD        33.1260    3.3430   18.2210 C.2    68  GLN68       0.2608
     53  OE1       33.1740    2.2330   18.7490 O.2    68  GLN68      -0.2717
     54  NE2       34.2170    4.0650   17.9760 N.am   68  GLN68      -0.0878
     55  N         25.6680    4.3730   14.3060 N.3    71  TRP71      -0.1227
     56  CA        26.2430    4.9070   13.0770 C.3    71  TRP71       0.1737
     57  C         25.5470    4.4730   11.7770 C.2    71  TRP71       0.2595
     58  O         25.1050    5.3160   10.9920 O.2    71  TRP71      -0.2718
     59  CB        27.7400    4.5500   13.0550 C.3    71  TRP71       0.0564
     60  CG        28.5300    5.0190   11.8660 C.ar   71  TRP71       0.0003
     61  CD1       28.2060    6.0220   10.9890 C.ar   71  TRP71       0.0946
     62  CD2       29.8120    4.5270   11.4520 C.ar   71  TRP71       0.0152
     63  NE1       29.2110    6.1820   10.0560 N.ar   71  TRP71      -0.2442
     64  CE2       30.2060    5.2760   10.3180 C.ar   71  TRP71       0.0810
     65  CE3       30.6700    3.5240   11.9330 C.ar   71  TRP71       0.0012
     66  CZ2       31.4240    5.0530    9.6550 C.ar   71  TRP71       0.0191
     67  CZ3       31.8800    3.3020   11.2730 C.ar   71  TRP71       0.0001
     68  CH2       32.2440    4.0650   10.1470 C.ar   71  TRP71       0.0015
     69  N         25.4290    3.1700   11.5540 N.am   72  MET72      -0.1979
     70  CA        24.8060    2.6770   10.3290 C.3    72  MET72       0.1605
     71  C         23.3620    3.1320   10.1780 C.2    72  MET72       0.2287
     72  O         23.0010    3.7110    9.1600 O.2    72  MET72      -0.2864
     73  CB        24.8590    1.1460   10.2740 C.3    72  MET72       0.0413
     74  CG        24.2480    0.5580    9.0030 C.3    72  MET72       0.0598
     75  SD        25.1740    1.0200    7.5350 S.3    72  MET72      -0.1393
     76  CE        26.3770   -0.2600    7.5170 C.3    72  MET72       0.0692
     77  N         22.8190    6.7900    9.2930 N.3    75  MET75      -0.1230
     78  CA        23.1300    7.0980    7.9060 C.3    75  MET75       0.1702
     79  C         21.9980    6.6170    6.9990 C.2    75  MET75       0.2592
     80  O         21.6200    7.3070    6.0540 O.2    75  MET75      -0.2718
     81  CB        24.4500    6.4450    7.4790 C.3    75  MET75       0.0401
     82  CG        25.6830    6.9550    8.2030 C.3    75  MET75       0.0596
     83  SD        27.1960    6.5320    7.3050 S.3    75  MET75      -0.1393
     84  CE        27.3240    4.7970    7.6690 C.3    75  MET75       0.0692
     85  N         21.4650    5.4340    7.2970 N.am   76  VAL76      -0.1980
     86  CA        20.3700    4.8580    6.5250 C.3    76  VAL76       0.1595
     87  C         19.1540    5.7820    6.5400 C.2    76  VAL76       0.2287
     88  O         18.5500    6.0480    5.5000 O.2    76  VAL76      -0.2864
     89  CB        19.9140    3.4830    7.0980 C.3    76  VAL76       0.0276
     90  CG1       18.5900    3.0760    6.4700 C.3    76  VAL76       0.0022
     91  CG2       20.9580    2.4100    6.8210 C.3    76  VAL76       0.0022
     92  N         19.8060    9.0670    4.7120 N.3    79  MET79      -0.1245
     93  CA        19.9430    8.8000    3.2790 C.3    79  MET79       0.1570
     94  C         18.5640    8.6250    2.6520 C.2    79  MET79       0.2261
     95  O         18.3020    9.1500    1.5700 O.2    79  MET79      -0.2867
     96  CB        20.8090    7.5540    3.0330 C.3    79  MET79       0.0387
     97  CG        21.2120    7.3310    1.5640 C.3    79  MET79       0.0595
     98  SD        19.9150    6.5600    0.5740 S.3    79  MET79      -0.1393
     99  CE        20.3010    4.8130    0.7820 C.3    79  MET79       0.0692
    100  N         17.0770   12.0290    2.2940 N.3    82  ARG82      -0.1245
    101  CA        17.7000   12.7590    1.1920 C.3    82  ARG82       0.1563
    102  C         17.2110   12.2110   -0.1370 C.2    82  ARG82       0.2260
    103  O         17.0180   12.9670   -1.0900 O.2    82  ARG82      -0.2867
    104  CB        19.2310   12.6490    1.2320 C.3    82  ARG82       0.0307
    105  CG        19.9150   13.5730    2.2240 C.3    82  ARG82       0.0489
    106  CD        21.4180   13.6640    1.9280 C.3    82  ARG82       0.2205
    107  NE        22.0280   12.3400    1.8170 N.pl3  82  ARG82      -0.0865
    108  CZ        22.4250   11.6020    2.8500 C.cat  82  ARG82       0.5346
    109  NH1       22.2930   12.0530    4.0920 N.pl3  82  ARG82       0.1354
    110  NH2       22.9390   10.3980    2.6440 N.pl3  82  ARG82       0.1354
    111  N         22.9660    8.6610   -1.8410 N.3    94  PHE94      -0.1241
    112  CA        23.9700    8.4810   -0.7970 C.3    94  PHE94       0.1605
    113  C         24.6950    9.8030   -0.5930 C.2    94  PHE94       0.2264
    114  O         24.9640   10.2200    0.5360 O.2    94  PHE94      -0.2867
    115  CB        24.9710    7.3970   -1.1890 C.3    94  PHE94       0.0534
    116  CG        24.4200    6.0030   -1.1230 C.ar   94  PHE94      -0.0203
    117  CD1       23.9500    5.3680   -2.2680 C.ar   94  PHE94      -0.0042
    118  CD2       24.4010    5.3090    0.0830 C.ar   94  PHE94      -0.0042
    119  CE1       23.4780    4.0570   -2.2140 C.ar   94  PHE94      -0.0003
    120  CE2       23.9280    3.9910    0.1460 C.ar   94  PHE94      -0.0003
    121  CZ        23.4690    3.3670   -1.0030 C.ar   94  PHE94      -0.0000
    122  N         24.8050   -5.0700   -2.9590 N.3   110  MET110     -0.1245
    123  CA        23.9930   -4.7400   -1.7830 C.3   110  MET110      0.1570
    124  C         22.5710   -4.4590   -2.2570 C.2   110  MET110      0.2261
    125  O         21.8800   -3.6120   -1.6890 O.2   110  MET110     -0.2867
    126  CB        24.5140   -3.4740   -1.1060 C.3   110  MET110      0.0387
    127  CG        26.0020   -3.4280   -0.8500 C.3   110  MET110      0.0595
    128  SD        26.4640   -1.8220   -0.1560 S.3   110  MET110     -0.1393
    129  CE        25.9920   -2.0410    1.4940 C.3   110  MET110      0.0692
    130  N         15.9280    0.2320    1.4650 N.3   117  MET117     -0.1245
    131  CA        16.1190    1.6460    1.7780 C.3   117  MET117      0.1570
    132  C         15.3240    2.5380    0.8150 C.2   117  MET117      0.2261
    133  O         14.9440    3.6570    1.1630 O.2   117  MET117     -0.2867
    134  CB        17.6100    2.0050    1.7310 C.3   117  MET117      0.0387
    135  CG        18.4370    1.2700    2.7730 C.3   117  MET117      0.0595
    136  SD        20.1450    1.8520    2.9320 S.3   117  MET117     -0.1393
    137  CE        20.9030    1.0460    1.5270 C.3   117  MET117      0.0692
    138  N         23.0890   -4.5120    6.4990 N.3   203  LEU203     -0.1231
    139  CA        24.2750   -3.7950    6.0390 C.3   203  LEU203      0.1693
    140  C         25.4600   -4.1580    6.9360 C.2   203  LEU203      0.2592
    141  O         26.5950   -4.3090    6.4620 O.2   203  LEU203     -0.2718
    142  CB        24.0230   -2.2780    6.0460 C.3   203  LEU203      0.0284
    143  CG        23.0410   -1.7550    4.9870 C.3   203  LEU203      0.0019
    144  CD1       22.7650   -0.2930    5.2180 C.3   203  LEU203      0.0001
    145  CD2       23.6050   -1.9700    3.5870 C.3   203  LEU203      0.0001
    146  N         25.1930   -4.3010    8.2320 N.am  204  HIS204     -0.1976
    147  CA        26.2350   -4.6840    9.1770 C.3   204  HIS204      0.1656
    148  C         26.7910   -6.0470    8.7700 C.2   204  HIS204      0.2291
    149  O         28.0020   -6.2170    8.6150 O.2   204  HIS204     -0.2864
    150  CB        25.6620   -4.7740   10.5950 C.3   204  HIS204      0.0771
    151  CG        25.6360   -3.4670   11.3230 C.ar  204  HIS204      0.0820
    152  ND1       24.6830   -3.1650   12.2730 N.ar  204  HIS204     -0.2267
    153  CD2       26.4560   -2.3920   11.2560 C.ar  204  HIS204      0.1154
    154  CE1       24.9150   -1.9580   12.7560 C.ar  204  HIS204      0.1986
    155  NE2       25.9860   -1.4680   12.1560 N.ar  204  HIS204     -0.2212
    156  N         26.5690   -7.6470    5.9190 N.3   206  PHE206     -0.1227
    157  CA        27.2410   -7.5500    4.6260 C.3   206  PHE206      0.1736
    158  C         28.6480   -6.9800    4.7670 C.2   206  PHE206      0.2596
    159  O         29.6110   -7.5560    4.2590 O.2   206  PHE206     -0.2718
    160  CB        26.4160   -6.6800    3.6610 C.3   206  PHE206      0.0547
    161  CG        27.1910   -6.1880    2.4590 C.ar  206  PHE206     -0.0202
    162  CD1       27.9160   -5.0000    2.5200 C.ar  206  PHE206     -0.0042
    163  CD2       27.1950   -6.9130    1.2670 C.ar  206  PHE206     -0.0042
    164  CE1       28.6360   -4.5360    1.4090 C.ar  206  PHE206     -0.0003
    165  CE2       27.9070   -6.4630    0.1530 C.ar  206  PHE206     -0.0003
    166  CZ        28.6290   -5.2720    0.2230 C.ar  206  PHE206     -0.0000
    167  N         28.7710   -5.8610    5.4690 N.am  207  THR207     -0.1953
    168  CA        30.0720   -5.2270    5.6360 C.3   207  THR207      0.1897
    169  C         31.0320   -6.1140    6.4070 C.2   207  THR207      0.2313
    170  O         32.2270   -6.1590    6.1080 O.2   207  THR207     -0.2863
    171  CB        29.9650   -3.8750    6.3710 C.3   207  THR207      0.1794
    172  OG1       28.9410   -3.0770    5.7660 O.3   207  THR207     -0.2208
    173  CG2       31.2880   -3.1240    6.2710 C.3   207  THR207      0.0378
    174  N         32.3210   -8.7470    4.1520 N.3   210  LEU210     -0.1245
    175  CA        33.2080   -8.0800    3.2110 C.3   210  LEU210      0.1561
    176  C         34.5800   -7.8100    3.8380 C.2   210  LEU210      0.2260
    177  O         35.6070   -8.0820    3.2210 O.2   210  LEU210     -0.2867
    178  CB        32.5600   -6.7750    2.7280 C.3   210  LEU210      0.0270
    179  CG        33.2280   -6.0290    1.5690 C.3   210  LEU210      0.0019
    180  CD1       33.4900   -6.9870    0.4100 C.3   210  LEU210      0.0001
    181  CD2       32.3300   -4.8760    1.1260 C.3   210  LEU210      0.0001
    182  N         36.9380    2.6960   10.3350 N.3   225  MET225     -0.1245
    183  CA        35.8620    1.7800    9.9760 C.3   225  MET225      0.1570
    184  C         36.2350    0.3260   10.2550 C.2   225  MET225      0.2261
    185  O         35.4680   -0.3970   10.8860 O.2   225  MET225     -0.2867
    186  CB        35.4680    1.9390    8.5050 C.3   225  MET225      0.0387
    187  CG        34.1770    1.2040    8.1540 C.3   225  MET225      0.0595
    188  SD        33.6440    1.3980    6.4420 S.3   225  MET225     -0.1393
    189  CE        32.9250    3.0670    6.5160 C.3   225  MET225      0.0692
    190  N         36.0750   -0.3350   13.9620 N.3   228  ILE228     -0.1231
    191  CA        34.7080   -0.3850   14.4510 C.3   228  ILE228      0.1692
    192  C         33.9790   -1.6540   14.0160 C.2   228  ILE228      0.2591
    193  O         33.2490   -2.2530   14.8000 O.2   228  ILE228     -0.2718
    194  CB        33.9290    0.8610   13.9870 C.3   228  ILE228      0.0266
    195  CG1       34.5020    2.0990   14.6880 C.3   228  ILE228      0.0019
    196  CG2       32.4380    0.6990   14.2760 C.3   228  ILE228      0.0020
    197  CD1       33.9130    3.4200   14.2100 C.3   228  ILE228      0.0001
    198  N         34.1850   -2.0620   12.7670 N.am  229  ILE229     -0.1980
    199  CA        33.5480   -3.2590   12.2330 C.3   229  ILE229      0.1595
    200  C         34.0280   -4.5310   12.9200 C.2   229  ILE229      0.2287
    201  O         33.2540   -5.4640   13.1140 O.2   229  ILE229     -0.2864
    202  CB        33.8250   -3.4150   10.7240 C.3   229  ILE229      0.0276
    203  CG1       33.2350   -2.2320    9.9580 C.3   229  ILE229      0.0022
    204  CG2       33.2500   -4.7330   10.2200 C.3   229  ILE229      0.0022
    205  CD1       33.5580   -2.2510    8.4830 C.3   229  ILE229      0.0001
    206  N         30.6760   -4.0370   15.5560 N.3   233  VAL233     -0.1245
    207  CA        29.6940   -4.7810   14.7750 C.3   233  VAL233      0.1561
    208  C         29.5360   -6.2380   15.2230 C.2   233  VAL233      0.2260
    209  O         28.4220   -6.7640   15.2420 O.2   233  VAL233     -0.2867
    210  CB        30.0390   -4.7380   13.2780 C.3   233  VAL233      0.0252
    211  CG1       29.0730   -5.6130   12.4820 C.3   233  VAL233      0.0019
    212  CG2       29.9590   -3.3100   12.7960 C.3   233  VAL233      0.0019
    213  N         27.0150   -6.6720   17.8730 N.3   236  ILE236     -0.1245
    214  CA        25.6280   -6.5730   17.4170 C.3   236  ILE236      0.1561
    215  C         25.1810   -7.8740   16.7570 C.2   236  ILE236      0.2260
    216  O         24.1060   -8.3870   17.0520 O.2   236  ILE236     -0.2867
    217  CB        25.4350   -5.4400   16.3730 C.3   236  ILE236      0.0252
    218  CG1       25.5930   -4.0680   17.0340 C.3   236  ILE236      0.0019
    219  CG2       24.0490   -5.5550   15.7290 C.3   236  ILE236      0.0019
    220  CD1       25.6340   -2.9090   16.0490 C.3   236  ILE236      0.0001
@<TRIPOS>BOND
     1     1     2    1
     2   122   123    1
     3     8     6    1
     4   117   119   ar
     5   117   116   ar
     6     2     5    1
     7     2     3    1
     8   124   123    1
     9   124   125    2
    10   119   121   ar
    11     5     6    1
    12   111   112    1
    13   123   126    1
    14     6     7    1
    15     3     4    2
    16   115   116    1
    17   115   112    1
    18    15    14    1
    19   116   118   ar
    20   126   127    1
    21   103   102    2
    22    14    16    1
    23    14    13    1
    24   121   120   ar
    25     9    10    1
    26   127   128    1
    27   112   113    1
    28   113   114    2
    29   128   129    1
    30   102   101    1
    31    13    10    1
    32   118   120   ar
    33    10    11    1
    34   165   166   ar
    35   165   163   ar
    36   166   164   ar
    37   180   179    1
    38    98    99    1
    39    98    97    1
    40    32    30    1
    41   132   133    2
    42   132   131    1
    43   181   179    1
    44   101   104    1
    45   101   100    1
    46   104   105    1
    47   163   161   ar
    48   164   162   ar
    49    29    30    1
    50    29    26    1
    51   130   131    1
    52    11    17   am
    53    11    12    2
    54    17    18    1
    55   137   136    1
    56    97    96    1
    57   179   178    1
    58    95    94    2
    59   134   131    1
    60   134   135    1
    61    31    30    1
    62   107   106    1
    63   107   108    2
    64   106   105    1
    65    25    26    1
    66    24    22   am
    67    26    27    1
    68   161   162   ar
    69   161   160    1
    70    22    21    1
    71    22    23    2
    72    21    18    1
    73   110   108    1
    74    94    93    1
    75   178   175    1
    76    18    19    1
    77   135   136    1
    78   108   109    1
    79    96    93    1
    80    19    20    2
    81   175   176    1
    82   175   174    1
    83   177   176    2
    84    93    92    1
    85   145   143    1
    86   160   157    1
    87    27    33   am
    88    27    28    2
    89    44    43    2
    90    33    34    1
    91   159   158    2
    92   157   158    1
    93   157   156    1
    94   158   167   am
    95   143   144    1
    96   143   142    1
    97    43    42    1
    98    43    45   am
    99   167   168    1
   100    88    87    2
   101    34    35    1
   102    42    41    1
   103   168   171    1
   104   168   169    1
   105   172   171    1
   106   139   142    1
   107   139   138    1
   108   139   140    1
   109    80    79    2
   110   170   169    2
   111   173   171    1
   112   188   189    1
   113   188   187    1
   114   141   140    2
   115    90    89    1
   116    86    87    1
   117    86    89    1
   118    86    85    1
   119    35    36    2
   120    91    89    1
   121    37    38    1
   122   140   146   am
   123    41    38    1
   124    79    85   am
   125    79    78    1
   126    83    84    1
   127    83    82    1
   128    81    78    1
   129    81    82    1
   130    76    75    1
   131    75    74    1
   132    38    39    1
   133    78    77    1
   134   187   186    1
   135   146   147    1
   136   205   203    1
   137   186   183    1
   138   149   148    2
   139   148   147    1
   140    74    73    1
   141    39    40    2
   142    72    71    2
   143   147   150    1
   144    66    68   ar
   145    66    64   ar
   146   203   202    1
   147   183   184    1
   148   183   182    1
   149    63    64   ar
   150    63    61   ar
   151    68    67   ar
   152    71    70    1
   153   204   202    1
   154   184   185    2
   155    73    70    1
   156    64    62   ar
   157    70    69    1
   158   150   151    1
   159   202   199    1
   160    61    60   ar
   161    58    57    2
   162   153   151   ar
   163   153   155   ar
   164    67    65   ar
   165   151   152   ar
   166    62    60   ar
   167    62    65   ar
   168    69    57   am
   169    57    56    1
   170    60    59    1
   171   155   154   ar
   172   199   198    1
   173   199   200    1
   174   152   154   ar
   175   211   210    1
   176   198   192   am
   177   212   210    1
   178   200   201    2
   179    59    56    1
   180    56    55    1
   181   210   207    1
   182   190   191    1
   183   194   196    1
   184   194   191    1
   185   194   195    1
   186   192   191    1
   187   192   193    2
   188   197   195    1
   189   207   208    1
   190   207   206    1
   191   208   209    2
   192    49    48    2
   193   219   217    1
   194   220   218    1
   195   217   218    1
   196   217   214    1
   197    48    47    1
   198   215   216    2
   199   215   214    1
   200    47    50    1
   201    47    46    1
   202   214   213    1
   203    50    51    1
   204    51    52    1
   205    54    52   am
   206    52    53    2
