@<TRIPOS>MOLECULE
tmp/3b60A00.pdb
 139 133 0 0 0
SMALL
GASTEIGER

@<TRIPOS>ATOM
      1  N         97.7400    0.2490   54.0060 N.3   108  ASP108     -0.1239
      2  CA        96.7760    1.3010   54.1870 C.3   108  ASP108      0.1674
      3  C         96.0190    1.0310   55.4770 C.2   108  ASP108      0.2266
      4  O         95.9710    1.8660   56.3740 O.2   108  ASP108     -0.2867
      5  CB        95.8060    1.3260   53.0020 C.3   108  ASP108      0.1410
      6  CG        96.5130    1.5310   51.6740 C.2   108  ASP108      0.3668
      7  OD1       97.4540    0.7680   51.3810 O.co2 108  ASP108     -0.2456
      8  OD2       96.1330    2.4470   50.9180 O.co2 108  ASP108     -0.2456
      9  N         87.8630    1.2370   46.0740 N.3   342  TYR342     -0.1228
     10  CA        88.9500    0.7790   46.9280 C.3   342  TYR342      0.1721
     11  C         88.7040   -0.4600   47.8080 C.2   342  TYR342      0.2437
     12  O         88.7810   -1.5720   47.3020 O.2   342  TYR342     -0.2733
     13  CB        89.4470    1.9690   47.7430 C.3   342  TYR342      0.0547
     14  CG        90.2750    2.9510   46.9560 C.ar  342  TYR342     -0.0200
     15  CD1       91.6680    2.8770   46.9560 C.ar  342  TYR342     -0.0009
     16  CD2       89.6700    3.9590   46.2220 C.ar  342  TYR342     -0.0009
     17  CE1       92.4320    3.7850   46.2500 C.ar  342  TYR342      0.0417
     18  CE2       90.4270    4.8730   45.5090 C.ar  342  TYR342      0.0417
     19  CZ        91.8070    4.7820   45.5280 C.ar  342  TYR342      0.1957
     20  OH        92.5540    5.6970   44.8250 O.3   342  TYR342     -0.2866
     21  N         88.4640   -0.3060   49.1320 N.am  343  PRO343     -0.2729
     22  CA        88.2430   -1.5770   49.8180 C.3   343  PRO343      0.1401
     23  C         86.8700   -2.1760   49.5160 C.2   343  PRO343      0.2269
     24  O         85.8890   -1.8840   50.2120 O.2   343  PRO343     -0.2865
     25  CB        88.4000   -1.2100   51.2980 C.3   343  PRO343      0.0296
     26  CG        89.3750   -0.1280   51.2620 C.3   343  PRO343      0.0237
     27  CD        88.8280    0.7130   50.1320 C.3   343  PRO343      0.0939
     28  N         81.7770   -0.5440   48.7120 N.3   346  GLU346     -0.1245
     29  CA        81.5370    0.8800   48.9830 C.3   346  GLU346      0.1567
     30  C         81.0060    1.5370   47.6920 C.2   346  GLU346      0.2260
     31  O         80.2190    0.9280   46.9670 O.2   346  GLU346     -0.2867
     32  CB        82.8400    1.5580   49.4380 C.3   346  GLU346      0.0388
     33  CG        83.3950    1.0210   50.7670 C.3   346  GLU346      0.1160
     34  CD        84.8970    0.8240   50.7430 C.2   346  GLU346      0.3649
     35  OE1       85.4270    0.2340   51.7090 O.co2 346  GLU346     -0.2457
     36  OE2       85.5400    1.2570   49.7600 O.co2 346  GLU346     -0.2457
     37  N         85.1920    5.1030   43.1040 N.3   349  ALA349     -0.1245
     38  CA        85.8810    6.3870   43.1000 C.3   349  ALA349      0.1562
     39  C         86.2900    6.7180   41.6870 C.2   349  ALA349      0.2260
     40  O         86.8330    7.7830   41.4160 O.2   349  ALA349     -0.2867
     41  CB        87.0980    6.3300   43.9870 C.3   349  ALA349      0.0290
     42  N         89.4910   18.9070   43.2650 N.3   369  SER369     -0.1202
     43  CA        90.2440   18.2770   44.3350 C.3   369  SER369      0.2020
     44  C         89.3600   17.2040   44.9500 C.2   369  SER369      0.2619
     45  O         88.6990   17.4420   45.9580 O.2   369  SER369     -0.2717
     46  CB        90.6000   19.3190   45.3920 C.3   369  SER369      0.2103
     47  OG        90.9710   18.7110   46.6190 O.3   369  SER369     -0.2182
     48  N         89.3420   16.0270   44.3390 N.am  370  GLY370     -0.1942
     49  CA        88.5050   14.9610   44.8530 C.3   370  GLY370      0.2014
     50  C         88.1150   13.9740   43.7760 C.2   370  GLY370      0.2640
     51  O         87.5480   12.9210   44.0530 O.2   370  GLY370     -0.2714
     52  N         88.3940   14.3260   42.5320 N.am  371  SER371     -0.1935
     53  CA        88.0970   13.4310   41.4290 C.3   371  SER371      0.2055
     54  C         89.2640   12.4500   41.3930 C.2   371  SER371      0.2644
     55  O         90.3600   12.7950   41.8320 O.2   371  SER371     -0.2714
     56  CB        88.0290   14.2070   40.1210 C.3   371  SER371      0.2130
     57  OG        87.7320   13.3350   39.0500 O.3   371  SER371     -0.2179
     58  N         89.0320   11.2530   40.8570 N.am  372  GLY372     -0.1939
     59  CA        90.0520   10.2080   40.7890 C.3   372  GLY372      0.2014
     60  C         91.4120   10.4490   40.1410 C.2   372  GLY372      0.2639
     61  O         92.0690    9.5020   39.6910 O.2   372  GLY372     -0.2714
     62  N         91.8500   11.7030   40.1060 N.am  373  LYS373     -0.1963
     63  CA        93.1390   12.0450   39.5180 C.3   373  LYS373      0.1728
     64  C         94.2640   11.1610   40.0670 C.2   373  LYS373      0.2617
     65  O         94.6370   10.1750   39.4350 O.2   373  LYS373     -0.2715
     66  CB        93.4460   13.5250   39.7700 C.3   373  LYS373      0.0311
     67  CG        92.6960   14.4850   38.8660 C.3   373  LYS373      0.0038
     68  CD        92.9720   15.9290   39.2330 C.3   373  LYS373      0.0206
     69  CE        92.0980   16.3820   40.3870 C.3   373  LYS373      0.1093
     70  NZ        92.2440   15.5540   41.6100 N.3   373  LYS373     -0.1314
     71  N         94.7960   11.5140   41.2380 N.am  374  SER374     -0.1936
     72  CA        95.8700   10.7400   41.8720 C.3   374  SER374      0.2055
     73  C         95.5600    9.2230   41.7980 C.2   374  SER374      0.2643
     74  O         96.4760    8.4040   41.6890 O.2   374  SER374     -0.2714
     75  CB        96.0580   11.1680   43.3630 C.3   374  SER374      0.2130
     76  OG        96.6220   12.4730   43.5580 O.3   374  SER374     -0.2179
     77  N         94.2680    8.8700   41.8270 N.am  375  THR375     -0.1950
     78  CA        93.8050    7.4760   41.8070 C.3   375  THR375      0.1897
     79  C         94.1810    6.7170   40.5620 C.2   375  THR375      0.2313
     80  O         94.8440    5.6850   40.6230 O.2   375  THR375     -0.2863
     81  CB        92.2790    7.3770   41.9410 C.3   375  THR375      0.1794
     82  OG1       91.8660    7.8820   43.2170 O.3   375  THR375     -0.2208
     83  CG2       91.8420    5.9360   41.8140 C.3   375  THR375      0.0378
     84  N         96.7540   -1.3950   42.8410 N.3   384  TYR384     -0.1241
     85  CA        95.3890   -1.8140   43.1600 C.3   384  TYR384      0.1605
     86  C         94.7880   -2.6710   42.0560 C.2   384  TYR384      0.2264
     87  O         93.5790   -2.9300   42.0420 O.2   384  TYR384     -0.2867
     88  CB        94.5100   -0.5780   43.3420 C.3   384  TYR384      0.0534
     89  CG        94.8130    0.2270   44.5820 C.ar  384  TYR384     -0.0201
     90  CD1       94.1430   -0.0260   45.7730 C.ar  384  TYR384     -0.0009
     91  CD2       95.7860    1.2270   44.5750 C.ar  384  TYR384     -0.0009
     92  CE1       94.4320    0.6960   46.9320 C.ar  384  TYR384      0.0417
     93  CE2       96.0870    1.9560   45.7330 C.ar  384  TYR384      0.0417
     94  CZ        95.4050    1.6840   46.9050 C.ar  384  TYR384      0.1957
     95  OH        95.6930    2.3860   48.0540 O.3   384  TYR384     -0.2866
     96  N        102.1650   12.7800   44.5550 N.3   415  GLN415     -0.1245
     97  CA       101.6910   14.0480   45.1230 C.3   415  GLN415      0.1566
     98  C        102.6150   14.4840   46.2510 C.2   415  GLN415      0.2260
     99  O        103.3240   15.4790   46.1200 O.2   415  GLN415     -0.2867
    100  CB       100.2610   13.9200   45.6650 C.3   415  GLN415      0.0367
    101  CG        99.4120   12.8710   44.9820 C.3   415  GLN415      0.0905
    102  CD        99.9410   11.4650   45.2260 C.2   415  GLN415      0.2608
    103  OE1      100.1050   11.0480   46.3720 O.2   415  GLN415     -0.2717
    104  NE2      100.2160   10.7290   44.1490 N.am  415  GLN415     -0.0878
    105  N        102.5080   13.2410   39.4130 N.3   496  ASP496     -0.1225
    106  CA       101.2970   13.5990   40.1340 C.3   496  ASP496      0.1805
    107  C        101.4080   14.8830   40.9280 C.2   496  ASP496      0.2597
    108  O        101.7830   14.8740   42.1020 O.2   496  ASP496     -0.2718
    109  CB       100.8680   12.4590   41.0570 C.3   496  ASP496      0.1424
    110  CG        99.4320   12.6010   41.5230 C.2   496  ASP496      0.3668
    111  OD1       98.9260   11.6710   42.1940 O.co2 496  ASP496     -0.2456
    112  OD2       98.8100   13.6430   41.2120 O.co2 496  ASP496     -0.2456
    113  N        101.0650   15.9810   40.2670 N.am  497  GLU497     -0.1979
    114  CA       101.0910   17.3010   40.8720 C.3   497  GLU497      0.1602
    115  C        102.5020   17.5760   41.3370 C.2   497  GLU497      0.2287
    116  O        102.7290   18.1140   42.4180 O.2   497  GLU497     -0.2864
    117  CB       100.1270   17.3390   42.0530 C.3   497  GLU497      0.0415
    118  CG        99.6490   18.7300   42.4320 C.3   497  GLU497      0.1163
    119  CD        98.5310   18.6940   43.4560 C.2   497  GLU497      0.3649
    120  OE1       97.8850   19.7400   43.6760 O.co2 497  GLU497     -0.2457
    121  OE2       98.3030   17.6150   44.0420 O.co2 497  GLU497     -0.2457
    122  N         99.7940   15.2740   35.9270 N.3   526  ILE526     -0.1245
    123  CA        98.5290   15.5640   36.5960 C.3   526  ILE526      0.1561
    124  C         98.7350   16.5810   37.7160 C.2   526  ILE526      0.2260
    125  O         99.0400   16.2150   38.8520 O.2   526  ILE526     -0.2867
    126  CB        97.9280   14.2370   37.1560 C.3   526  ILE526      0.0252
    127  CG1       96.7190   14.4880   38.0370 C.3   526  ILE526      0.0019
    128  CG2       98.9670   13.5070   37.9680 C.3   526  ILE526      0.0019
    129  CD1       96.8610   14.9340   39.5150 C.3   526  ILE526      0.0001
    130  N         97.6320   20.8860   39.2860 N.3   528  HIS528     -0.1241
    131  CA        96.5420   21.8200   39.5000 C.3   528  HIS528      0.1621
    132  C         96.8960   23.1840   38.9210 C.2   528  HIS528      0.2264
    133  O         96.0230   23.8960   38.4340 O.2   528  HIS528     -0.2867
    134  CB        96.2270   21.9620   40.9960 C.3   528  HIS528      0.0745
    135  CG        95.0680   21.1330   41.4620 C.ar  528  HIS528      0.0817
    136  ND1       94.0180   20.7890   40.6370 N.ar  528  HIS528     -0.2268
    137  CD2       94.7640   20.6360   42.6850 C.ar  528  HIS528      0.1154
    138  CE1       93.1170   20.1180   41.3320 C.ar  528  HIS528      0.1986
    139  NE2       93.5450   20.0120   42.5770 N.ar  528  HIS528     -0.2212
@<TRIPOS>BOND
     1   122   123    1
     2   123   126    1
     3   123   124    1
     4   126   128    1
     5   126   127    1
     6   124   125    2
     7   127   129    1
     8   133   132    2
     9    67    68    1
    10    67    66    1
    11   132   131    1
    12    57    56    1
    13    68    69    1
    14   130   131    1
    15   105   106    1
    16    65    64    2
    17   131   134    1
    18    63    66    1
    19    63    64    1
    20    63    62    1
    21    61    60    2
    22    64    71   am
    23    62    60   am
    24    56    53    1
    25   106   107    1
    26   106   109    1
    27    60    59    1
    28   113   114    1
    29   113   107   am
    30    69    70    1
    31    79    80    2
    32    79    78    1
    33   136   138   ar
    34   136   135   ar
    35    59    58    1
    36    58    54   am
    37   114   115    1
    38   114   117    1
    39   107   108    2
    40   134   135    1
    41   109   110    1
    42   112   110   ar
    43    71    72    1
    44   138   139   ar
    45   115   116    2
    46    54    53    1
    47    54    55    2
    48    40    39    2
    49    53    52    1
    50   135   137   ar
    51   110   111   ar
    52    39    38    1
    53    74    73    2
    54    73    77   am
    55    73    72    1
    56    78    77    1
    57    78    81    1
    58    83    81    1
    59    72    75    1
    60    81    82    1
    61    87    86    2
    62   117   118    1
    63    86    85    1
    64   118   119    1
    65    52    50   am
    66   139   137   ar
    67    84    85    1
    68    38    37    1
    69    38    41    1
    70    85    88    1
    71    42    43    1
    72    88    89    1
    73    75    76    1
    74   119   120   ar
    75   119   121   ar
    76    50    51    2
    77    50    49    1
    78   104   102   am
    79    43    44    1
    80    43    46    1
    81    48    49    1
    82    48    44   am
    83    96    97    1
    84    91    89   ar
    85    91    93   ar
    86    89    90   ar
    87    20    19    1
    88    44    45    2
    89   101   102    1
    90   101   100    1
    91    97   100    1
    92    97    98    1
    93   102   103    2
    94    46    47    1
    95    18    19   ar
    96    18    16   ar
    97    19    17   ar
    98    93    94   ar
    99    90    92   ar
   100     9    10    1
   101    99    98    2
   102    16    14   ar
   103    17    15   ar
   104    94    92   ar
   105    94    95    1
   106    10    13    1
   107    10    11    1
   108    14    15   ar
   109    14    13    1
   110    31    30    2
   111    12    11    2
   112    30    29    1
   113    11    21   am
   114    28    29    1
   115    29    32    1
   116    21    22    1
   117    21    27    1
   118    32    33    1
   119    23    22    1
   120    23    24    2
   121    36    34   ar
   122    22    25    1
   123    27    26    1
   124    34    33    1
   125    34    35   ar
   126     8     6   ar
   127    26    25    1
   128     7     6   ar
   129     6     5    1
   130     5     2    1
   131     1     2    1
   132     2     3    1
   133     3     4    2
