@<TRIPOS>MOLECULE
tmp/3b60A01.pdb
 86 82 0 0 0
SMALL
GASTEIGER

@<TRIPOS>ATOM
      1  N        124.7830   23.5020   49.3710 N.3   457  MET457     -0.1245
      2  CA       124.9710   22.7730   50.6190 C.3   457  MET457      0.1570
      3  C        126.2520   21.9310   50.5370 C.2   457  MET457      0.2261
      4  O        126.4060   21.1240   49.6170 O.2   457  MET457     -0.2867
      5  CB       123.7480   21.8840   50.9010 C.3   457  MET457      0.0387
      6  CG       123.5160   20.7690   49.8970 C.3   457  MET457      0.0595
      7  SD       122.0220   19.8160   50.2570 S.3   457  MET457     -0.1393
      8  CE       122.1540   19.5820   51.9740 C.3   457  MET457      0.0692
      9  N        113.7260   15.7830   55.6650 N.3   470  VAL470     -0.1231
     10  CA       113.3640   16.6350   56.7880 C.3   470  VAL470      0.1692
     11  C        114.2240   17.8780   56.8790 C.2   470  VAL470      0.2592
     12  O        113.7170   18.9660   57.1720 O.2   470  VAL470     -0.2718
     13  CB       113.4320   15.8880   58.1320 C.3   470  VAL470      0.0266
     14  CG1      113.2360   16.8640   59.2850 C.3   470  VAL470      0.0020
     15  CG2      112.3510   14.8430   58.1830 C.3   470  VAL470      0.0020
     16  N        115.5180   17.7440   56.6090 N.am  471  LEU471     -0.1966
     17  CA       116.3660   18.9120   56.7260 C.3   471  LEU471      0.1728
     18  C        116.5490   19.7450   55.4720 C.2   471  LEU471      0.2616
     19  O        117.6460   20.1500   55.1300 O.2   471  LEU471     -0.2715
     20  CB       117.7230   18.5370   57.3570 C.3   471  LEU471      0.0311
     21  CG       118.4450   17.2100   57.1200 C.3   471  LEU471      0.0022
     22  CD1      118.7960   17.0730   55.6730 C.3   471  LEU471      0.0001
     23  CD2      119.7050   17.1750   57.9670 C.3   471  LEU471      0.0001
     24  N        115.4530   20.0220   54.7920 N.am  472  LEU472     -0.1963
     25  CA       115.5210   20.8470   53.6010 C.3   472  LEU472      0.1728
     26  C        114.1340   21.0660   53.0170 C.2   472  LEU472      0.2617
     27  O        113.2070   20.2810   53.2460 O.2   472  LEU472     -0.2715
     28  CB       116.4480   20.2320   52.5510 C.3   472  LEU472      0.0311
     29  CG       115.9530   19.0260   51.7500 C.3   472  LEU472      0.0022
     30  CD1      117.0510   18.5280   50.8030 C.3   472  LEU472      0.0001
     31  CD2      115.5440   17.9370   52.7170 C.3   472  LEU472      0.0001
     32  N        114.0060   22.1500   52.2610 N.am  473  SER473     -0.1936
     33  CA       112.7450   22.5410   51.6610 C.3   473  SER473      0.2055
     34  C        112.0000   21.4880   50.8850 C.2   473  SER473      0.2644
     35  O        112.5930   20.6780   50.1790 O.2   473  SER473     -0.2714
     36  CB       112.9460   23.7270   50.7480 C.3   473  SER473      0.2130
     37  OG       111.8310   23.8240   49.8980 O.3   473  SER473     -0.2179
     38  N        110.6790   21.5420   51.0030 N.am  474  GLY474     -0.1939
     39  CA       109.8290   20.6040   50.3020 C.3   474  GLY474      0.2014
     40  C        110.0320   20.7930   48.8240 C.2   474  GLY474      0.2639
     41  O        110.0340   19.8450   48.0500 O.2   474  GLY474     -0.2714
     42  N        110.2010   22.0390   48.4220 N.am  475  GLY475     -0.1939
     43  CA       110.4270   22.2900   47.0180 C.3   475  GLY475      0.2014
     44  C        111.6780   21.5250   46.6440 C.2   475  GLY475      0.2638
     45  O        111.6730   20.7050   45.7270 O.2   475  GLY475     -0.2714
     46  N        112.7520   21.7880   47.3850 N.am  476  GLN476     -0.1977
     47  CA       114.0250   21.1370   47.1450 C.3   476  GLN476      0.1601
     48  C        113.7680   19.6510   47.0800 C.2   476  GLN476      0.2287
     49  O        114.1920   18.9740   46.1470 O.2   476  GLN476     -0.2864
     50  CB       115.0050   21.4790   48.2700 C.3   476  GLN476      0.0394
     51  CG       115.2950   22.9700   48.3600 C.3   476  GLN476      0.0908
     52  CD       116.3020   23.3310   49.4340 C.2   476  GLN476      0.2608
     53  OE1      116.0940   23.0610   50.6170 O.2   476  GLN476     -0.2717
     54  NE2      117.4020   23.9560   49.0240 N.am  476  GLN476     -0.0878
     55  N        111.7600   18.5450   44.0430 N.3   479  ARG479     -0.1245
     56  CA       112.6300   18.5860   42.8760 C.3   479  ARG479      0.1563
     57  C        113.4530   17.3150   42.8410 C.2   479  ARG479      0.2260
     58  O        113.5860   16.6730   41.8070 O.2   479  ARG479     -0.2867
     59  CB       113.5650   19.7910   42.9410 C.3   479  ARG479      0.0307
     60  CG       112.8720   21.1410   42.9640 C.3   479  ARG479      0.0489
     61  CD       113.8970   22.2330   42.8210 C.3   479  ARG479      0.2205
     62  NE       113.7730   23.2630   43.8490 N.pl3 479  ARG479     -0.0865
     63  CZ       114.7370   24.1390   44.1430 C.cat 479  ARG479      0.5346
     64  NH1      115.8910   24.0960   43.4810 N.pl3 479  ARG479      0.1354
     65  NH2      114.5550   25.0600   45.0880 N.pl3 479  ARG479      0.1354
     66  N        104.7340   22.4830   45.5880 N.3   501  ALA501     -0.1231
     67  CA       105.2580   23.6470   46.2750 C.3   501  ALA501      0.1694
     68  C        106.5040   24.1560   45.5810 C.2   501  ALA501      0.2592
     69  O        107.6190   23.8200   45.9740 O.2   501  ALA501     -0.2718
     70  CB       105.5710   23.2920   47.7170 C.3   501  ALA501      0.0304
     71  N        106.3190   24.9830   44.5600 N.am  502  LEU502     -0.1966
     72  CA       107.4650   25.4860   43.8330 C.3   502  LEU502      0.1728
     73  C        107.5030   26.9580   43.4760 C.2   502  LEU502      0.2616
     74  O        106.4980   27.5740   43.1360 O.2   502  LEU502     -0.2715
     75  CB       107.6610   24.6620   42.5590 C.3   502  LEU502      0.0311
     76  CG       108.3360   23.3030   42.7390 C.3   502  LEU502      0.0022
     77  CD1      108.2040   22.5130   41.4550 C.3   502  LEU502      0.0001
     78  CD2      109.8070   23.4940   43.1320 C.3   502  LEU502      0.0001
     79  N        108.7090   27.4980   43.5680 N.am  503  ASP503     -0.1971
     80  CA       109.0140   28.8720   43.2280 C.3   503  ASP503      0.1709
     81  C        108.5130   28.9740   41.8010 C.2   503  ASP503      0.2293
     82  O        109.0560   28.3270   40.9130 O.2   503  ASP503     -0.2864
     83  CB       110.5340   29.0440   43.2660 C.3   503  ASP503      0.1436
     84  CG       110.9810   30.4730   43.0820 C.2   503  ASP503      0.3671
     85  OD1      110.5830   31.3040   43.9180 O.co2 503  ASP503     -0.2456
     86  OD2      111.7420   30.7610   42.1220 O.co2 503  ASP503     -0.2456
@<TRIPOS>BOND
     1    82    81    2
     2    77    76    1
     3    81    80    1
     4    58    57    2
     5    86    84   ar
     6    75    76    1
     7    75    72    1
     8    76    78    1
     9    61    60    1
    10    61    62    1
    11    57    56    1
    12    56    59    1
    13    56    55    1
    14    59    60    1
    15    84    83    1
    16    84    85   ar
    17    74    73    2
    18    80    83    1
    19    80    79    1
    20    73    79   am
    21    73    72    1
    22    64    63    1
    23    72    71    1
    24    62    63    2
    25    63    65    1
    26    71    68   am
    27    68    69    2
    28    68    67    1
    29    66    67    1
    30    45    44    2
    31    49    48    2
    32    67    70    1
    33    44    43    1
    34    44    46   am
    35    43    42    1
    36    48    47    1
    37    47    46    1
    38    47    50    1
    39    41    40    2
    40    50    51    1
    41    51    52    1
    42    42    40   am
    43    40    39    1
    44    54    52   am
    45     1     2    1
    46    52    53    2
    47     4     3    2
    48     6     7    1
    49     6     5    1
    50    37    36    1
    51    35    34    2
    52     7     8    1
    53    39    38    1
    54     3     2    1
    55     2     5    1
    56    36    33    1
    57    30    29    1
    58    34    38   am
    59    34    33    1
    60    33    32    1
    61    29    28    1
    62    29    31    1
    63    32    26   am
    64    28    25    1
    65    26    27    2
    66    26    25    1
    67    25    24    1
    68    24    18   am
    69    19    18    2
    70    18    17    1
    71     9    10    1
    72    22    21    1
    73    16    17    1
    74    16    11   am
    75    17    20    1
    76    10    11    1
    77    10    13    1
    78    11    12    2
    79    21    20    1
    80    21    23    1
    81    13    15    1
    82    13    14    1
