@<TRIPOS>MOLECULE
tmp/3b65A00.pdb
 252 239 0 0 0
SMALL
GASTEIGER

@<TRIPOS>ATOM
      1  N         32.3170    0.3210   -3.6700 N.3    31  LEU31      -0.1245
      2  CA        32.4970    0.0230   -2.2540 C.3    31  LEU31       0.1561
      3  C         33.5050    0.9580   -1.5860 C.2    31  LEU31       0.2260
      4  O         33.3090    1.3820   -0.4410 O.2    31  LEU31      -0.2867
      5  CB        32.9310   -1.4380   -2.0650 C.3    31  LEU31       0.0270
      6  CG        31.8390   -2.3730   -1.5210 C.3    31  LEU31       0.0019
      7  CD1       31.4120   -1.8990   -0.1350 C.3    31  LEU31       0.0001
      8  CD2       30.6380   -2.3890   -2.4670 C.3    31  LEU31       0.0001
      9  N         31.7020    4.0610   -0.9120 N.3    34  LEU34      -0.1231
     10  CA        30.7440    3.9030    0.1720 C.3    34  LEU34       0.1693
     11  C         31.5090    3.9680    1.4960 C.2    34  LEU34       0.2592
     12  O         31.0820    4.6590    2.4130 O.2    34  LEU34      -0.2718
     13  CB        29.9920    2.5700    0.0560 C.3    34  LEU34       0.0284
     14  CG        28.8730    2.5150   -0.9930 C.3    34  LEU34       0.0019
     15  CD1       28.3190    1.1030   -1.0860 C.3    34  LEU34       0.0001
     16  CD2       27.7640    3.5010   -0.6200 C.3    34  LEU34       0.0001
     17  N         32.6430    3.2610    1.5770 N.am   35  ASN35      -0.1974
     18  CA        33.4740    3.2480    2.7870 C.3    35  ASN35       0.1688
     19  C         33.9690    4.6480    3.1340 C.2    35  ASN35       0.2292
     20  O         33.8590    5.0760    4.2780 O.2    35  ASN35      -0.2864
     21  CB        34.6870    2.3160    2.6300 C.3    35  ASN35       0.1181
     22  CG        34.3030    0.8390    2.5980 C.2    35  ASN35       0.2629
     23  OD1       33.1980    0.4550    2.9860 O.2    35  ASN35      -0.2716
     24  ND2       35.2290    0.0030    2.1470 N.am   35  ASN35      -0.0877
     25  N         32.7150    7.4960    2.1070 N.3    37  LEU37      -0.1231
     26  CA        31.5350    8.2900    2.4270 C.3    37  LEU37       0.1693
     27  C         31.0790    7.9890    3.8520 C.2    37  LEU37       0.2592
     28  O         30.7500    8.9030    4.6070 O.2    37  LEU37      -0.2718
     29  CB        30.3980    7.9880    1.4480 C.3    37  LEU37       0.0284
     30  CG        29.0690    8.7070    1.7240 C.3    37  LEU37       0.0019
     31  CD1       29.2710   10.2270    1.6880 C.3    37  LEU37       0.0001
     32  CD2       28.0450    8.2820    0.6860 C.3    37  LEU37       0.0001
     33  N         31.0560    6.7090    4.2110 N.am   38  GLY38      -0.1957
     34  CA        30.6500    6.3250    5.5480 C.3    38  GLY38       0.1869
     35  C         31.5070    7.0300    6.5760 C.2    38  GLY38       0.2309
     36  O         31.0040    7.6010    7.5460 O.2    38  GLY38      -0.2863
     37  N         30.8440   10.8270    6.7810 N.3    41  GLN41      -0.1245
     38  CA        29.6120   11.0980    7.5130 C.3    41  GLN41       0.1566
     39  C         29.7570   10.8720    9.0120 C.2    41  GLN41       0.2260
     40  O         29.1510   11.5910    9.7990 O.2    41  GLN41      -0.2867
     41  CB        28.4620   10.2510    6.9680 C.3    41  GLN41       0.0367
     42  CG        28.0410   10.6610    5.5690 C.3    41  GLN41       0.0905
     43  CD        26.7260   10.0350    5.1430 C.2    41  GLN41       0.2608
     44  OE1       26.3800   10.0460    3.9600 O.2    41  GLN41      -0.2717
     45  NE2       25.9790    9.4950    6.1070 N.am   41  GLN41      -0.0878
     46  N         28.7960    4.7660   17.7970 N.3    68  GLN68      -0.1231
     47  CA        29.2830    3.6950   16.9400 C.3    68  GLN68       0.1698
     48  C         28.2150    2.6290   16.6340 C.2    68  GLN68       0.2592
     49  O         28.1380    2.1490   15.4990 O.2    68  GLN68      -0.2718
     50  CB        30.5340    3.0610   17.5600 C.3    68  GLN68       0.0381
     51  CG        31.6760    4.0660   17.7590 C.3    68  GLN68       0.0905
     52  CD        32.9550    3.4240   18.2600 C.2    68  GLN68       0.2608
     53  OE1       32.9330    2.3410   18.8400 O.2    68  GLN68      -0.2717
     54  NE2       34.0770    4.1030   18.0610 N.am   68  GLN68      -0.0878
     55  N         27.3820    2.2710   17.6140 N.am   69  TYR69      -0.1976
     56  CA        26.3310    1.2720   17.3760 C.3    69  TYR69       0.1639
     57  C         25.2700    1.8190   16.4160 C.2    69  TYR69       0.2290
     58  O         24.8450    1.1320   15.4830 O.2    69  TYR69      -0.2864
     59  CB        25.6080    0.8610   18.6750 C.3    69  TYR69       0.0560
     60  CG        26.4610    0.2420   19.7730 C.ar   69  TYR69      -0.0198
     61  CD1       27.4750   -0.6720   19.4810 C.ar   69  TYR69      -0.0009
     62  CD2       26.2290    0.5590   21.1120 C.ar   69  TYR69      -0.0009
     63  CE1       28.2380   -1.2480   20.4990 C.ar   69  TYR69       0.0417
     64  CE2       26.9840   -0.0140   22.1330 C.ar   69  TYR69       0.0417
     65  CZ        27.9860   -0.9110   21.8210 C.ar   69  TYR69       0.1957
     66  OH        28.7400   -1.4550   22.8350 O.3    69  TYR69      -0.2866
     67  N         25.5870    4.3460   14.2990 N.3    71  TRP71      -0.1227
     68  CA        26.1640    4.8470   13.0550 C.3    71  TRP71       0.1737
     69  C         25.4400    4.4330   11.7650 C.2    71  TRP71       0.2595
     70  O         24.9180    5.2820   11.0470 O.2    71  TRP71      -0.2718
     71  CB        27.6450    4.4490   13.0140 C.3    71  TRP71       0.0564
     72  CG        28.4340    4.9260   11.8330 C.ar   71  TRP71       0.0003
     73  CD1       28.0790    5.8820   10.9170 C.ar   71  TRP71       0.0946
     74  CD2       29.7360    4.4740   11.4580 C.ar   71  TRP71       0.0152
     75  NE1       29.0890    6.0510    9.9920 N.ar   71  TRP71      -0.2442
     76  CE2       30.1160    5.1970   10.3030 C.ar   71  TRP71       0.0810
     77  CE3       30.6230    3.5240   11.9870 C.ar   71  TRP71       0.0012
     78  CZ2       31.3450    5.0000    9.6680 C.ar   71  TRP71       0.0191
     79  CZ3       31.8460    3.3290   11.3550 C.ar   71  TRP71       0.0001
     80  CH2       32.1950    4.0640   10.2070 C.ar   71  TRP71       0.0015
     81  N         25.4020    3.1400   11.4740 N.am   72  MET72      -0.1979
     82  CA        24.7460    2.6390   10.2700 C.3    72  MET72       0.1605
     83  C         23.2760    3.0860   10.1700 C.2    72  MET72       0.2287
     84  O         22.8620    3.6660    9.1680 O.2    72  MET72      -0.2864
     85  CB        24.8280    1.1060   10.2440 C.3    72  MET72       0.0413
     86  CG        24.3040    0.4730    8.9550 C.3    72  MET72       0.0598
     87  SD        25.3140    0.8920    7.5120 S.3    72  MET72      -0.1393
     88  CE        26.5910   -0.3720    7.5980 C.3    72  MET72       0.0692
     89  N         22.7450    6.7410    9.2310 N.3    75  MET75      -0.1230
     90  CA        23.0090    7.0300    7.8230 C.3    75  MET75       0.1702
     91  C         21.8780    6.5430    6.9310 C.2    75  MET75       0.2592
     92  O         21.4940    7.2210    5.9760 O.2    75  MET75      -0.2718
     93  CB        24.3280    6.3950    7.3710 C.3    75  MET75       0.0401
     94  CG        25.5430    6.9770    8.0580 C.3    75  MET75       0.0596
     95  SD        27.0790    6.5330    7.2440 S.3    75  MET75      -0.1393
     96  CE        27.0690    4.7750    7.4430 C.3    75  MET75       0.0692
     97  N         21.3510    5.3680    7.2540 N.am   76  VAL76      -0.1980
     98  CA        20.2510    4.7720    6.5140 C.3    76  VAL76       0.1595
     99  C         19.0500    5.7040    6.5400 C.2    76  VAL76       0.2287
    100  O         18.4810    6.0350    5.5050 O.2    76  VAL76      -0.2864
    101  CB        19.8300    3.4150    7.1440 C.3    76  VAL76       0.0276
    102  CG1       18.4740    2.9910    6.6060 C.3    76  VAL76       0.0022
    103  CG2       20.8810    2.3460    6.8410 C.3    76  VAL76       0.0022
    104  N         19.6510    8.9640    4.7170 N.3    79  MET79      -0.1245
    105  CA        19.7510    8.7380    3.2770 C.3    79  MET79       0.1570
    106  C         18.3650    8.5450    2.6530 C.2    79  MET79       0.2261
    107  O         18.1210    8.9790    1.5260 O.2    79  MET79      -0.2867
    108  CB        20.6500    7.5220    3.0060 C.3    79  MET79       0.0387
    109  CG        21.0660    7.3340    1.5470 C.3    79  MET79       0.0595
    110  SD        19.8200    6.5160    0.5260 S.3    79  MET79      -0.1393
    111  CE        20.0650    4.8110    1.0090 C.3    79  MET79       0.0692
    112  N         16.7650   12.0110    2.2740 N.3    82  ARG82      -0.1245
    113  CA        17.3920   12.7300    1.1680 C.3    82  ARG82       0.1563
    114  C         16.9250   12.1420   -0.1520 C.2    82  ARG82       0.2260
    115  O         16.6930   12.8740   -1.1120 O.2    82  ARG82      -0.2867
    116  CB        18.9190   12.6290    1.2020 C.3    82  ARG82       0.0307
    117  CG        19.6040   13.3940    2.2970 C.3    82  ARG82       0.0489
    118  CD        21.0970   13.5250    1.9940 C.3    82  ARG82       0.2205
    119  NE        21.7830   12.2340    1.8860 N.pl3  82  ARG82      -0.0865
    120  CZ        22.2530   11.5320    2.9160 C.cat  82  ARG82       0.5346
    121  NH1       22.1220   11.9800    4.1570 N.pl3  82  ARG82       0.1354
    122  NH2       22.8690   10.3770    2.7000 N.pl3  82  ARG82       0.1354
    123  N         22.8570    8.6500   -1.7220 N.3    94  PHE94      -0.1241
    124  CA        23.8770    8.4850   -0.6870 C.3    94  PHE94       0.1605
    125  C         24.6250    9.8030   -0.5080 C.2    94  PHE94       0.2264
    126  O         24.9480   10.2100    0.6070 O.2    94  PHE94      -0.2867
    127  CB        24.8700    7.3860   -1.0600 C.3    94  PHE94       0.0534
    128  CG        24.3070    5.9960   -0.9850 C.ar   94  PHE94      -0.0203
    129  CD1       23.8050    5.3730   -2.1220 C.ar   94  PHE94      -0.0042
    130  CD2       24.3180    5.2930    0.2190 C.ar   94  PHE94      -0.0042
    131  CE1       23.3250    4.0630   -2.0690 C.ar   94  PHE94      -0.0003
    132  CE2       23.8390    3.9810    0.2880 C.ar   94  PHE94      -0.0003
    133  CZ        23.3440    3.3660   -0.8620 C.ar   94  PHE94      -0.0000
    134  N         24.6160   -5.1540   -2.8350 N.3   110  MET110     -0.1245
    135  CA        23.7890   -4.8320   -1.6660 C.3   110  MET110      0.1570
    136  C         22.4030   -4.4860   -2.1760 C.2   110  MET110      0.2261
    137  O         21.7360   -3.6120   -1.6240 O.2   110  MET110     -0.2867
    138  CB        24.3270   -3.6030   -0.9380 C.3   110  MET110      0.0387
    139  CG        25.6620   -3.7710   -0.2750 C.3   110  MET110      0.0595
    140  SD        26.4400   -2.1660   -0.1000 S.3   110  MET110     -0.1393
    141  CE        25.4260   -1.4190    1.0970 C.3   110  MET110      0.0692
    142  N         15.8070    0.2600    1.4570 N.3   117  MET117     -0.1245
    143  CA        16.0000    1.6680    1.7680 C.3   117  MET117      0.1570
    144  C         15.1870    2.5440    0.8180 C.2   117  MET117      0.2261
    145  O         14.7480    3.6320    1.1910 O.2   117  MET117     -0.2867
    146  CB        17.4850    2.0310    1.6930 C.3   117  MET117      0.0387
    147  CG        18.3090    1.3210    2.7510 C.3   117  MET117      0.0595
    148  SD        20.0070    1.8830    2.8810 S.3   117  MET117     -0.1393
    149  CE        20.8420    0.8030    1.6210 C.3   117  MET117      0.0692
    150  N         22.9780   -4.4920    6.4460 N.3   203  LEU203     -0.1231
    151  CA        24.1640   -3.7490    6.0250 C.3   203  LEU203      0.1693
    152  C         25.3360   -4.1480    6.9260 C.2   203  LEU203      0.2592
    153  O         26.4750   -4.3140    6.4660 O.2   203  LEU203     -0.2718
    154  CB        23.8950   -2.2390    6.1010 C.3   203  LEU203      0.0284
    155  CG        22.9520   -1.6980    5.0180 C.3   203  LEU203      0.0019
    156  CD1       22.6060   -0.2310    5.2780 C.3   203  LEU203      0.0001
    157  CD2       23.6150   -1.8620    3.6550 C.3   203  LEU203      0.0001
    158  N         25.0510   -4.3160    8.2140 N.am  204  HIS204     -0.1976
    159  CA        26.0790   -4.7220    9.1590 C.3   204  HIS204      0.1656
    160  C         26.6280   -6.0750    8.7490 C.2   204  HIS204      0.2291
    161  O         27.8390   -6.2450    8.6040 O.2   204  HIS204     -0.2864
    162  CB        25.5050   -4.8090   10.5730 C.3   204  HIS204      0.0771
    163  CG        25.5100   -3.5030   11.3040 C.ar  204  HIS204      0.0820
    164  ND1       24.5220   -3.1440   12.1970 N.ar  204  HIS204     -0.2267
    165  CD2       26.3970   -2.4810   11.2920 C.ar  204  HIS204      0.1154
    166  CE1       24.8010   -1.9570   12.7030 C.ar  204  HIS204      0.1986
    167  NE2       25.9330   -1.5320   12.1720 N.ar  204  HIS204     -0.2212
    168  N         26.4230   -7.6770    5.8800 N.3   206  PHE206     -0.1227
    169  CA        27.1140   -7.5530    4.6050 C.3   206  PHE206      0.1736
    170  C         28.5110   -6.9540    4.7730 C.2   206  PHE206      0.2596
    171  O         29.4870   -7.4880    4.2580 O.2   206  PHE206     -0.2718
    172  CB        26.2880   -6.6870    3.6460 C.3   206  PHE206      0.0547
    173  CG        27.0580   -6.2010    2.4430 C.ar  206  PHE206     -0.0202
    174  CD1       27.7940   -5.0190    2.5010 C.ar  206  PHE206     -0.0042
    175  CD2       27.0590   -6.9340    1.2570 C.ar  206  PHE206     -0.0042
    176  CE1       28.5230   -4.5750    1.3900 C.ar  206  PHE206     -0.0003
    177  CE2       27.7800   -6.5030    0.1470 C.ar  206  PHE206     -0.0003
    178  CZ        28.5130   -5.3240    0.2110 C.ar  206  PHE206     -0.0000
    179  N         28.5980   -5.8450    5.4950 N.am  207  THR207     -0.1953
    180  CA        29.8730   -5.1660    5.7100 C.3   207  THR207      0.1897
    181  C         30.8560   -6.0400    6.4650 C.2   207  THR207      0.2313
    182  O         32.0600   -6.0090    6.2010 O.2   207  THR207     -0.2863
    183  CB        29.6830   -3.8590    6.5050 C.3   207  THR207      0.1794
    184  OG1       28.7360   -3.0230    5.8280 O.3   207  THR207     -0.2208
    185  CG2       31.0000   -3.1180    6.6290 C.3   207  THR207      0.0378
    186  N         32.2180   -8.7050    4.1320 N.3   210  LEU210     -0.1245
    187  CA        33.0810   -8.0240    3.1740 C.3   210  LEU210      0.1561
    188  C         34.4690   -7.7130    3.7370 C.2   210  LEU210      0.2260
    189  O         35.4690   -7.8730    3.0420 O.2   210  LEU210     -0.2867
    190  CB        32.3990   -6.7420    2.6790 C.3   210  LEU210      0.0270
    191  CG        33.1300   -5.9320    1.6000 C.3   210  LEU210      0.0019
    192  CD1       33.7240   -6.8600    0.5370 C.3   210  LEU210      0.0001
    193  CD2       32.1530   -4.9420    0.9810 C.3   210  LEU210      0.0001
    194  N         39.2590   -0.7020    3.1070 N.3   221  PHE221     -0.1241
    195  CA        38.5420   -0.2910    4.3020 C.3   221  PHE221      0.1605
    196  C         39.3370    0.7070    5.1130 C.2   221  PHE221      0.2264
    197  O         40.4740    0.4450    5.4980 O.2   221  PHE221     -0.2867
    198  CB        38.1870   -1.4830    5.1900 C.3   221  PHE221      0.0534
    199  CG        36.9300   -2.1820    4.7780 C.ar  221  PHE221     -0.0203
    200  CD1       36.9720   -3.2570    3.9000 C.ar  221  PHE221     -0.0042
    201  CD2       35.6960   -1.7440    5.2460 C.ar  221  PHE221     -0.0042
    202  CE1       35.8000   -3.8910    3.4890 C.ar  221  PHE221     -0.0003
    203  CE2       34.5150   -2.3690    4.8420 C.ar  221  PHE221     -0.0003
    204  CZ        34.5680   -3.4460    3.9600 C.ar  221  PHE221     -0.0000
    205  N         36.8730    2.6600   10.2740 N.3   225  MET225     -0.1245
    206  CA        35.7810    1.7580    9.9280 C.3   225  MET225      0.1570
    207  C         36.1680    0.3040   10.1830 C.2   225  MET225      0.2261
    208  O         35.3990   -0.4440   10.7730 O.2   225  MET225     -0.2867
    209  CB        35.3720    1.9320    8.4620 C.3   225  MET225      0.0387
    210  CG        34.0630    1.2270    8.1230 C.3   225  MET225      0.0595
    211  SD        33.5570    1.3630    6.3970 S.3   225  MET225     -0.1393
    212  CE        32.9070    3.0430    6.4040 C.3   225  MET225      0.0692
    213  N         35.9580   -0.4730   13.8520 N.3   228  ILE228     -0.1231
    214  CA        34.5980   -0.5280   14.3690 C.3   228  ILE228      0.1692
    215  C         33.8600   -1.7670   13.8800 C.2   228  ILE228      0.2591
    216  O         33.0680   -2.3540   14.6210 O.2   228  ILE228     -0.2718
    217  CB        33.8090    0.7550   13.9980 C.3   228  ILE228      0.0266
    218  CG1       34.3270    1.9290   14.8330 C.3   228  ILE228      0.0019
    219  CG2       32.3130    0.5590   14.2530 C.3   228  ILE228      0.0020
    220  CD1       33.6240    3.2500   14.5460 C.3   228  ILE228      0.0001
    221  N         34.1260   -2.1720   12.6400 N.am  229  ILE229     -0.1980
    222  CA        33.4890   -3.3590   12.0820 C.3   229  ILE229      0.1595
    223  C         33.9370   -4.5940   12.8550 C.2   229  ILE229      0.2287
    224  O         33.1340   -5.4750   13.1460 O.2   229  ILE229     -0.2864
    225  CB        33.8550   -3.5700   10.5860 C.3   229  ILE229      0.0276
    226  CG1       33.3180   -2.4150    9.7400 C.3   229  ILE229      0.0022
    227  CG2       33.2540   -4.8760   10.0780 C.3   229  ILE229      0.0022
    228  CD1       33.7510   -2.4730    8.2980 C.3   229  ILE229      0.0001
    229  N         32.9980   -3.3890   17.2420 N.3   232  GLN232     -0.1231
    230  CA        31.6230   -3.0960   17.6220 C.3   232  GLN232      0.1698
    231  C         30.5680   -3.9140   16.8800 C.2   232  GLN232      0.2592
    232  O         29.6770   -4.5050   17.4950 O.2   232  GLN232     -0.2718
    233  CB        31.3570   -1.6020   17.4340 C.3   232  GLN232      0.0381
    234  CG        32.2750   -0.7030   18.2710 C.3   232  GLN232      0.0905
    235  CD        31.9540   -0.7480   19.7610 C.2   232  GLN232      0.2608
    236  OE1       31.8340   -1.8210   20.3510 O.2   232  GLN232     -0.2717
    237  NE2       31.8140    0.4220   20.3730 N.am  232  GLN232     -0.0878
    238  N         30.6700   -3.9520   15.5580 N.am  233  VAL233     -0.1980
    239  CA        29.7100   -4.6930   14.7530 C.3   233  VAL233      0.1595
    240  C         29.4870   -6.1450   15.1930 C.2   233  VAL233      0.2287
    241  O         28.3530   -6.6190   15.1970 O.2   233  VAL233     -0.2864
    242  CB        30.1030   -4.6450   13.2560 C.3   233  VAL233      0.0276
    243  CG1       29.1520   -5.5150   12.4310 C.3   233  VAL233      0.0022
    244  CG2       30.0580   -3.1900   12.7610 C.3   233  VAL233      0.0022
    245  N         26.9280   -6.6350   17.9400 N.3   236  ILE236     -0.1245
    246  CA        25.5590   -6.4940   17.4660 C.3   236  ILE236      0.1561
    247  C         25.0990   -7.7750   16.7840 C.2   236  ILE236      0.2260
    248  O         24.0060   -8.2770   17.0500 O.2   236  ILE236     -0.2867
    249  CB        25.4400   -5.3430   16.4440 C.3   236  ILE236      0.0252
    250  CG1       25.7150   -4.0070   17.1340 C.3   236  ILE236      0.0019
    251  CG2       24.0680   -5.3670   15.7910 C.3   236  ILE236      0.0019
    252  CD1       25.6000   -2.7920   16.2090 C.3   236  ILE236      0.0001
@<TRIPOS>BOND
     1     1     2    1
     2   134   135    1
     3     8     6    1
     4     2     5    1
     5     2     3    1
     6   136   135    1
     7   136   137    2
     8   129   131   ar
     9   129   128   ar
    10   131   133   ar
    11     5     6    1
    12   123   124    1
    13   135   138    1
    14     3     4    2
    15     6     7    1
    16   115   114    2
    17    15    14    1
    18   127   128    1
    19   127   124    1
    20    14    16    1
    21    14    13    1
    22   128   130   ar
    23   138   139    1
    24     9    10    1
    25   133   132   ar
    26   124   125    1
    27   125   126    2
    28   139   140    1
    29   114   113    1
    30   140   141    1
    31    13    10    1
    32   177   178   ar
    33   177   175   ar
    34    10    11    1
    35   178   176   ar
    36   130   132   ar
    37   110   111    1
    38   110   109    1
    39   192   191    1
    40    32    30    1
    41   144   145    2
    42   144   143    1
    43   193   191    1
    44   113   116    1
    45   113   112    1
    46   116   117    1
    47   175   173   ar
    48   176   174   ar
    49    29    30    1
    50    29    26    1
    51   142   143    1
    52    11    17   am
    53    11    12    2
    54   107   106    2
    55   109   108    1
    56    17    18    1
    57   191   190    1
    58   149   148    1
    59    31    30    1
    60   146   143    1
    61   146   147    1
    62   119   118    1
    63   119   120    2
    64   118   117    1
    65    25    26    1
    66    24    22   am
    67    26    27    1
    68   173   174   ar
    69   173   172    1
    70    22    21    1
    71    22    23    2
    72    21    18    1
    73   106   105    1
    74   190   187    1
    75   122   120    1
    76   147   148    1
    77    18    19    1
    78   120   121    1
    79   108   105    1
    80   189   188    2
    81   194   195    1
    82    19    20    2
    83   187   188    1
    84   187   186    1
    85   105   104    1
    86   202   200   ar
    87   202   204   ar
    88   172   169    1
    89   157   155    1
    90    27    33   am
    91    27    28    2
    92   200   199   ar
    93    44    43    2
    94   204   203   ar
    95    33    34    1
    96   171   170    2
    97   195   196    1
    98   195   198    1
    99   169   170    1
   100   169   168    1
   101   170   179   am
   102   199   198    1
   103   199   201   ar
   104   203   201   ar
   105   155   156    1
   106   155   154    1
   107   196   197    2
   108    43    42    1
   109    43    45   am
   110   179   180    1
   111   100    99    2
   112    34    35    1
   113    42    41    1
   114   180   181    1
   115   180   183    1
   116   184   183    1
   117    92    91    2
   118   151   154    1
   119   151   150    1
   120   151   152    1
   121   182   181    2
   122   211   212    1
   123   211   210    1
   124   153   152    2
   125   183   185    1
   126    98    99    1
   127    98   101    1
   128    98    97    1
   129    35    36    2
   130   102   101    1
   131    37    38    1
   132   103   101    1
   133   152   158   am
   134    91    97   am
   135    91    90    1
   136    41    38    1
   137    95    96    1
   138    95    94    1
   139    93    90    1
   140    93    94    1
   141    87    88    1
   142    87    86    1
   143    38    39    1
   144    90    89    1
   145   210   209    1
   146   158   159    1
   147   228   226    1
   148   209   206    1
   149   161   160    2
   150   160   159    1
   151    86    85    1
   152    39    40    2
   153   159   162    1
   154    84    83    2
   155    78    80   ar
   156    78    76   ar
   157   226   225    1
   158   206   207    1
   159   206   205    1
   160    75    76   ar
   161    75    73   ar
   162   227   225    1
   163    83    82    1
   164   207   208    2
   165    80    79   ar
   166    85    82    1
   167    82    81    1
   168    76    74   ar
   169   162   163    1
   170   225   222    1
   171    73    72   ar
   172    70    69    2
   173   165   163   ar
   174   165   167   ar
   175   163   164   ar
   176    79    77   ar
   177    74    72   ar
   178    74    77   ar
   179    81    69   am
   180    69    68    1
   181    72    71    1
   182   222   221    1
   183   222   223    1
   184   167   166   ar
   185   164   166   ar
   186   243   242    1
   187   221   215   am
   188   244   242    1
   189   223   224    2
   190    71    68    1
   191    68    67    1
   192   242   239    1
   193   213   214    1
   194   215   214    1
   195   215   216    2
   196   217   219    1
   197   217   214    1
   198   217   218    1
   199   220   218    1
   200   239   240    1
   201   239   238    1
   202   240   241    2
   203    58    57    2
   204    49    48    2
   205   238   231   am
   206   251   249    1
   207   252   250    1
   208    57    56    1
   209   249   250    1
   210   249   246    1
   211    48    47    1
   212    48    55   am
   213   247   248    2
   214   247   246    1
   215   231   232    2
   216   231   230    1
   217    47    50    1
   218    47    46    1
   219   229   230    1
   220    56    55    1
   221    56    59    1
   222   233   230    1
   223   233   234    1
   224   246   245    1
   225    50    51    1
   226    51    52    1
   227    54    52   am
   228    52    53    2
   229   234   235    1
   230    59    60    1
   231    61    60   ar
   232    61    63   ar
   233   235   236    2
   234   235   237   am
   235    60    62   ar
   236    63    65   ar
   237    62    64   ar
   238    65    64   ar
   239    65    66    1
