@<TRIPOS>MOLECULE
tmp/3b66A00.pdb
 212 199 0 0 0
SMALL
GASTEIGER

@<TRIPOS>ATOM
      1  N         32.2620    0.2780   -3.6010 N.3    31  LEU31      -0.1245
      2  CA        32.3900   -0.0040   -2.1740 C.3    31  LEU31       0.1561
      3  C         33.4520    0.8610   -1.4930 C.2    31  LEU31       0.2260
      4  O         33.2820    1.2700   -0.3440 O.2    31  LEU31      -0.2867
      5  CB        32.6730   -1.4970   -1.9460 C.3    31  LEU31       0.0270
      6  CG        31.4300   -2.3630   -1.6850 C.3    31  LEU31       0.0019
      7  CD1       30.8020   -1.9550   -0.3560 C.3    31  LEU31       0.0001
      8  CD2       30.4190   -2.2170   -2.8210 C.3    31  LEU31       0.0001
      9  N         31.7400    3.9840   -0.8800 N.3    34  LEU34      -0.1231
     10  CA        30.7560    3.8750    0.1880 C.3    34  LEU34       0.1693
     11  C         31.5030    3.9020    1.5240 C.2    34  LEU34       0.2592
     12  O         31.0660    4.5500    2.4690 O.2    34  LEU34      -0.2718
     13  CB        29.9460    2.5810    0.0570 C.3    34  LEU34       0.0284
     14  CG        28.7830    2.6180   -0.9450 C.3    34  LEU34       0.0019
     15  CD1       28.1900    1.2240   -1.0950 C.3    34  LEU34       0.0001
     16  CD2       27.7130    3.6060   -0.4720 C.3    34  LEU34       0.0001
     17  N         32.6370    3.2060    1.5930 N.am   35  ASN35      -0.1974
     18  CA        33.4390    3.1780    2.8180 C.3    35  ASN35       0.1688
     19  C         33.9360    4.5710    3.1770 C.2    35  ASN35       0.2292
     20  O         33.8160    4.9990    4.3270 O.2    35  ASN35      -0.2864
     21  CB        34.6460    2.2490    2.6720 C.3    35  ASN35       0.1181
     22  CG        34.2580    0.7880    2.6570 C.2    35  ASN35       0.2629
     23  OD1       33.1500    0.4210    3.0530 O.2    35  ASN35      -0.2716
     24  ND2       35.1770   -0.0590    2.2170 N.am   35  ASN35      -0.0877
     25  N         32.7470    7.4450    2.1340 N.3    37  LEU37      -0.1231
     26  CA        31.6010    8.2870    2.4660 C.3    37  LEU37       0.1693
     27  C         31.1290    7.9640    3.8820 C.2    37  LEU37       0.2592
     28  O         30.7300    8.8560    4.6380 O.2    37  LEU37      -0.2718
     29  CB        30.4500    8.0540    1.4800 C.3    37  LEU37       0.0284
     30  CG        29.1790    8.8440    1.8090 C.3    37  LEU37       0.0019
     31  CD1       29.4560   10.3460    1.7060 C.3    37  LEU37       0.0001
     32  CD2       28.0640    8.4340    0.8550 C.3    37  LEU37       0.0001
     33  N         31.1670    6.6840    4.2330 N.am   38  GLY38      -0.1957
     34  CA        30.7520    6.2860    5.5660 C.3    38  GLY38       0.1869
     35  C         31.5960    6.9930    6.6080 C.2    38  GLY38       0.2309
     36  O         31.0750    7.5620    7.5650 O.2    38  GLY38      -0.2863
     37  N         30.9220   10.7750    6.8240 N.3    41  GLN41      -0.1245
     38  CA        29.6880   11.0620    7.5460 C.3    41  GLN41       0.1566
     39  C         29.8810   10.8550    9.0490 C.2    41  GLN41       0.2260
     40  O         29.3700   11.6350    9.8460 O.2    41  GLN41      -0.2867
     41  CB        28.5310   10.1970    7.0280 C.3    41  GLN41       0.0367
     42  CG        28.1440   10.5160    5.5830 C.3    41  GLN41       0.0905
     43  CD        26.7710    9.9930    5.1790 C.2    41  GLN41       0.2608
     44  OE1       26.4060   10.0370    4.0000 O.2    41  GLN41      -0.2717
     45  NE2       26.0000    9.5100    6.1500 N.am   41  GLN41      -0.0878
     46  N         28.8180    4.8450   17.8350 N.3    68  GLN68      -0.1245
     47  CA        29.3030    3.7530   17.0050 C.3    68  GLN68       0.1566
     48  C         28.2200    2.7080   16.7190 C.2    68  GLN68       0.2260
     49  O         28.0930    2.2480   15.5850 O.2    68  GLN68      -0.2867
     50  CB        30.5440    3.1180   17.6480 C.3    68  GLN68       0.0367
     51  CG        31.6890    4.1290   17.8270 C.3    68  GLN68       0.0905
     52  CD        32.9980    3.5050   18.2830 C.2    68  GLN68       0.2608
     53  OE1       33.0140    2.4870   18.9760 O.2    68  GLN68      -0.2717
     54  NE2       34.1080    4.1360   17.9170 N.am   68  GLN68      -0.0878
     55  N         25.6540    4.4250   14.3040 N.3    71  TRP71      -0.1227
     56  CA        26.2120    4.9460   13.0620 C.3    71  TRP71       0.1737
     57  C         25.4930    4.5040   11.7800 C.2    71  TRP71       0.2595
     58  O         25.0150    5.3430   11.0140 O.2    71  TRP71      -0.2718
     59  CB        27.6980    4.5750   13.0130 C.3    71  TRP71       0.0564
     60  CG        28.4720    5.0400   11.8170 C.ar   71  TRP71       0.0003
     61  CD1       28.1280    6.0240   10.9300 C.ar   71  TRP71       0.0946
     62  CD2       29.7610    4.5630   11.4090 C.ar   71  TRP71       0.0152
     63  NE1       29.1270    6.1860    9.9930 N.ar   71  TRP71      -0.2442
     64  CE2       30.1400    5.3020   10.2660 C.ar   71  TRP71       0.0810
     65  CE3       30.6330    3.5810   11.9010 C.ar   71  TRP71       0.0012
     66  CZ2       31.3590    5.0890    9.6030 C.ar   71  TRP71       0.0191
     67  CZ3       31.8420    3.3690   11.2440 C.ar   71  TRP71       0.0001
     68  CH2       32.1930    4.1200   10.1080 C.ar   71  TRP71       0.0015
     69  N         25.4030    3.1980   11.5510 N.am   72  MET72      -0.1979
     70  CA        24.7560    2.6860   10.3420 C.3    72  MET72       0.1605
     71  C         23.2900    3.1180   10.2430 C.2    72  MET72       0.2287
     72  O         22.8610    3.6440    9.2150 O.2    72  MET72      -0.2864
     73  CB        24.8500    1.1560   10.3060 C.3    72  MET72       0.0413
     74  CG        24.3120    0.5210    9.0220 C.3    72  MET72       0.0598
     75  SD        25.3330    0.9020    7.5920 S.3    72  MET72      -0.1393
     76  CE        26.5700   -0.4460    7.6880 C.3    72  MET72       0.0692
     77  N         22.7550    6.8180    9.4220 N.3    75  MET75      -0.1230
     78  CA        23.0260    7.1300    8.0270 C.3    75  MET75       0.1702
     79  C         21.9060    6.6330    7.1220 C.2    75  MET75       0.2592
     80  O         21.5260    7.3120    6.1670 O.2    75  MET75      -0.2718
     81  CB        24.3610    6.5280    7.5820 C.3    75  MET75       0.0401
     82  CG        25.5850    7.1750    8.2130 C.3    75  MET75       0.0596
     83  SD        27.1320    6.7230    7.3610 S.3    75  MET75      -0.1393
     84  CE        27.2210    4.9770    7.7030 C.3    75  MET75       0.0692
     85  N         21.3820    5.4480    7.4270 N.am   76  VAL76      -0.1980
     86  CA        20.2940    4.8600    6.6520 C.3    76  VAL76       0.1595
     87  C         19.0730    5.7780    6.6600 C.2    76  VAL76       0.2287
     88  O         18.4810    6.0620    5.6160 O.2    76  VAL76      -0.2864
     89  CB        19.8730    3.4780    7.2340 C.3    76  VAL76       0.0276
     90  CG1       18.5420    3.0420    6.6420 C.3    76  VAL76       0.0022
     91  CG2       20.9470    2.4320    6.9360 C.3    76  VAL76       0.0022
     92  N         19.7540    9.0350    4.7850 N.3    79  MET79      -0.1245
     93  CA        19.8850    8.7670    3.3570 C.3    79  MET79       0.1570
     94  C         18.4940    8.5870    2.7440 C.2    79  MET79       0.2261
     95  O         18.2220    9.0900    1.6540 O.2    79  MET79      -0.2867
     96  CB        20.7610    7.5250    3.1270 C.3    79  MET79       0.0387
     97  CG        21.2110    7.3250    1.6740 C.3    79  MET79       0.0595
     98  SD        19.9680    6.5090    0.6560 S.3    79  MET79      -0.1393
     99  CE        20.2760    4.7850    1.0730 C.3    79  MET79       0.0692
    100  N         16.9460   11.9750    2.2730 N.3    82  ARG82      -0.1245
    101  CA        17.5570   12.6830    1.1450 C.3    82  ARG82       0.1563
    102  C         17.0490   12.1510   -0.1860 C.2    82  ARG82       0.2260
    103  O         16.8630   12.9170   -1.1350 O.2    82  ARG82      -0.2867
    104  CB        19.0820   12.5430    1.1600 C.3    82  ARG82       0.0307
    105  CG        19.7890   13.3350    2.2350 C.3    82  ARG82       0.0489
    106  CD        21.2840   13.4270    1.9330 C.3    82  ARG82       0.2205
    107  NE        21.9450   12.1210    1.9230 N.pl3  82  ARG82      -0.0865
    108  CZ        22.3540   11.4770    3.0150 C.cat  82  ARG82       0.5346
    109  NH1       22.1740   12.0130    4.2130 N.pl3  82  ARG82       0.1354
    110  NH2       22.9500   10.2970    2.9080 N.pl3  82  ARG82       0.1354
    111  N         22.8840    8.6170   -1.6860 N.3    94  PHE94      -0.1241
    112  CA        23.8870    8.4650   -0.6260 C.3    94  PHE94       0.1605
    113  C         24.6330    9.7880   -0.4600 C.2    94  PHE94       0.2264
    114  O         24.9610   10.2090    0.6550 O.2    94  PHE94      -0.2867
    115  CB        24.9020    7.3680   -0.9690 C.3    94  PHE94       0.0534
    116  CG        24.3380    5.9730   -0.9410 C.ar   94  PHE94      -0.0203
    117  CD1       23.7590    5.4180   -2.0790 C.ar   94  PHE94      -0.0042
    118  CD2       24.4030    5.2080    0.2240 C.ar   94  PHE94      -0.0042
    119  CE1       23.2520    4.1140   -2.0600 C.ar   94  PHE94      -0.0003
    120  CE2       23.8990    3.9030    0.2550 C.ar   94  PHE94      -0.0003
    121  CZ        23.3250    3.3560   -0.8850 C.ar   94  PHE94      -0.0000
    122  N         24.6430   -5.1640   -2.8430 N.3   110  MET110     -0.1245
    123  CA        23.8620   -4.7880   -1.6690 C.3   110  MET110      0.1570
    124  C         22.4440   -4.5090   -2.1400 C.2   110  MET110      0.2261
    125  O         21.7430   -3.6850   -1.5530 O.2   110  MET110     -0.2867
    126  CB        24.4170   -3.5070   -1.0450 C.3   110  MET110      0.0387
    127  CG        25.8910   -3.5310   -0.7290 C.3   110  MET110      0.0595
    128  SD        26.4590   -1.8860   -0.2780 S.3   110  MET110     -0.1393
    129  CE        25.9010   -1.8000    1.3740 C.3   110  MET110      0.0692
    130  N         15.8580    0.2300    1.5570 N.3   117  MET117     -0.1245
    131  CA        16.0580    1.6430    1.8540 C.3   117  MET117      0.1570
    132  C         15.2300    2.4950    0.8900 C.2   117  MET117      0.2261
    133  O         14.8010    3.5900    1.2420 O.2   117  MET117     -0.2867
    134  CB        17.5460    2.0130    1.7760 C.3   117  MET117      0.0387
    135  CG        18.3830    1.3530    2.8790 C.3   117  MET117      0.0595
    136  SD        20.1140    1.8820    3.0030 S.3   117  MET117     -0.1393
    137  CE        20.7990    1.0750    1.5780 C.3   117  MET117      0.0692
    138  N         22.9440   -4.4770    6.6390 N.3   203  LEU203     -0.1231
    139  CA        24.1360   -3.7630    6.1880 C.3   203  LEU203      0.1693
    140  C         25.3300   -4.1180    7.0750 C.2   203  LEU203      0.2592
    141  O         26.4590   -4.2390    6.5900 O.2   203  LEU203     -0.2718
    142  CB        23.8790   -2.2560    6.1950 C.3   203  LEU203      0.0284
    143  CG        22.8950   -1.7530    5.1290 C.3   203  LEU203      0.0019
    144  CD1       22.5260   -0.3170    5.4180 C.3   203  LEU203      0.0001
    145  CD2       23.5180   -1.8730    3.7440 C.3   203  LEU203      0.0001
    146  N         25.0870   -4.2830    8.3730 N.am  204  HIS204     -0.1976
    147  CA        26.1610   -4.6660    9.2930 C.3   204  HIS204      0.1656
    148  C         26.7150   -6.0290    8.8910 C.2   204  HIS204      0.2291
    149  O         27.9290   -6.2290    8.8550 O.2   204  HIS204     -0.2864
    150  CB        25.6440   -4.7550   10.7320 C.3   204  HIS204      0.0771
    151  CG        25.5880   -3.4360   11.4400 C.ar  204  HIS204      0.0820
    152  ND1       24.5800   -3.1100   12.3230 N.ar  204  HIS204     -0.2267
    153  CD2       26.4280   -2.3740   11.4180 C.ar  204  HIS204      0.1154
    154  CE1       24.8010   -1.9030   12.8120 C.ar  204  HIS204      0.1986
    155  NE2       25.9160   -1.4350   12.2800 N.ar  204  HIS204     -0.2212
    156  N         26.5360   -7.5030    5.9510 N.3   206  PHE206     -0.1227
    157  CA        27.2150   -7.3570    4.6740 C.3   206  PHE206      0.1736
    158  C         28.5870   -6.7390    4.8710 C.2   206  PHE206      0.2596
    159  O         29.5830   -7.2500    4.3620 O.2   206  PHE206     -0.2718
    160  CB        26.3770   -6.4860    3.7300 C.3   206  PHE206      0.0547
    161  CG        27.1080   -6.0510    2.4910 C.ar  206  PHE206     -0.0202
    162  CD1       27.8180   -4.8520    2.4740 C.ar  206  PHE206     -0.0042
    163  CD2       27.1000   -6.8440    1.3480 C.ar  206  PHE206     -0.0042
    164  CE1       28.5100   -4.4490    1.3350 C.ar  206  PHE206     -0.0003
    165  CE2       27.7890   -6.4520    0.2050 C.ar  206  PHE206     -0.0003
    166  CZ        28.4950   -5.2520    0.1980 C.ar  206  PHE206     -0.0000
    167  N         28.6360   -5.6420    5.6220 N.am  207  THR207     -0.1953
    168  CA        29.8940   -4.9500    5.8690 C.3   207  THR207      0.1897
    169  C         30.8870   -5.8580    6.5790 C.2   207  THR207      0.2313
    170  O         32.0740   -5.8630    6.2540 O.2   207  THR207     -0.2863
    171  CB        29.6820   -3.6840    6.7230 C.3   207  THR207      0.1794
    172  OG1       28.6460   -2.8830    6.1400 O.3   207  THR207     -0.2208
    173  CG2       30.9560   -2.8720    6.7720 C.3   207  THR207      0.0378
    174  N         32.2070   -8.4710    4.1810 N.3   210  LEU210     -0.1245
    175  CA        33.0960   -7.8160    3.2260 C.3   210  LEU210      0.1561
    176  C         34.4780   -7.5520    3.8220 C.2   210  LEU210      0.2260
    177  O         35.4990   -7.8080    3.1770 O.2   210  LEU210     -0.2867
    178  CB        32.4650   -6.5040    2.7330 C.3   210  LEU210      0.0270
    179  CG        33.2190   -5.7820    1.6080 C.3   210  LEU210      0.0019
    180  CD1       33.4900   -6.7470    0.4550 C.3   210  LEU210      0.0001
    181  CD2       32.4030   -4.5870    1.1260 C.3   210  LEU210      0.0001
    182  N         36.9910    2.8070   10.2750 N.3   225  MET225     -0.1245
    183  CA        35.8510    1.9440    9.9850 C.3   225  MET225      0.1570
    184  C         36.1660    0.4760   10.2730 C.2   225  MET225      0.2261
    185  O         35.3460   -0.2320   10.8630 O.2   225  MET225     -0.2867
    186  CB        35.4310    2.1060    8.5260 C.3   225  MET225      0.0387
    187  CG        34.2180    1.2720    8.1370 C.3   225  MET225      0.0595
    188  SD        33.7400    1.5570    6.4280 S.3   225  MET225     -0.1393
    189  CE        32.8600    3.1410    6.6120 C.3   225  MET225      0.0692
    190  N         36.0180   -0.2680   13.9840 N.3   228  ILE228     -0.1231
    191  CA        34.6410   -0.3240   14.4560 C.3   228  ILE228      0.1692
    192  C         33.9150   -1.5880   13.9930 C.2   228  ILE228      0.2591
    193  O         33.1320   -2.1730   14.7440 O.2   228  ILE228     -0.2718
    194  CB        33.8630    0.9250   13.9930 C.3   228  ILE228      0.0266
    195  CG1       34.4130    2.1610   14.7190 C.3   228  ILE228      0.0019
    196  CG2       32.3750    0.7420   14.2500 C.3   228  ILE228      0.0020
    197  CD1       33.8390    3.4830   14.2340 C.3   228  ILE228      0.0001
    198  N         34.1670   -2.0040   12.7560 N.am  229  ILE229     -0.1980
    199  CA        33.5320   -3.2040   12.2240 C.3   229  ILE229      0.1595
    200  C         34.0280   -4.4490   12.9560 C.2   229  ILE229      0.2287
    201  O         33.2650   -5.3810   13.1980 O.2   229  ILE229     -0.2864
    202  CB        33.8300   -3.3840   10.7150 C.3   229  ILE229      0.0276
    203  CG1       33.2240   -2.2280    9.9130 C.3   229  ILE229      0.0022
    204  CG2       33.2520   -4.7130   10.2260 C.3   229  ILE229      0.0022
    205  CD1       33.6340   -2.2230    8.4410 C.3   229  ILE229      0.0001
    206  N         30.6580   -3.8940   15.6460 N.3   233  VAL233     -0.1245
    207  CA        29.6850   -4.6270   14.8520 C.3   233  VAL233      0.1561
    208  C         29.4580   -6.0840   15.2910 C.2   233  VAL233      0.2260
    209  O         28.3230   -6.5550   15.3050 O.2   233  VAL233     -0.2867
    210  CB        30.0610   -4.5810   13.3570 C.3   233  VAL233      0.0252
    211  CG1       29.0970   -5.4410   12.5410 C.3   233  VAL233      0.0019
    212  CG2       30.0210   -3.1400   12.8670 C.3   233  VAL233      0.0019
@<TRIPOS>BOND
     1     1     2    1
     2   122   123    1
     3     8     6    1
     4     2     5    1
     5     2     3    1
     6   124   123    1
     7   124   125    2
     8   117   119   ar
     9   117   116   ar
    10   119   121   ar
    11     5     6    1
    12   111   112    1
    13     6     7    1
    14   123   126    1
    15     3     4    2
    16   103   102    2
    17    15    14    1
    18   126   127    1
    19   115   116    1
    20   115   112    1
    21    14    16    1
    22    14    13    1
    23   116   118   ar
    24   121   120   ar
    25     9    10    1
    26   127   128    1
    27   112   113    1
    28   113   114    2
    29   128   129    1
    30   102   101    1
    31    13    10    1
    32    10    11    1
    33   166   165   ar
    34   166   164   ar
    35   165   163   ar
    36   118   120   ar
    37   180   179    1
    38    98    99    1
    39    98    97    1
    40    32    30    1
    41   132   133    2
    42   132   131    1
    43   181   179    1
    44   101   104    1
    45   101   100    1
    46   104   105    1
    47   164   162   ar
    48   163   161   ar
    49    29    30    1
    50    29    26    1
    51    11    17   am
    52    11    12    2
    53   130   131    1
    54   137   136    1
    55    17    18    1
    56   179   178    1
    57    95    94    2
    58    97    96    1
    59    31    30    1
    60   134   131    1
    61   134   135    1
    62   107   106    1
    63   107   108    2
    64   106   105    1
    65    25    26    1
    66    24    22   am
    67    26    27    1
    68   162   161   ar
    69   161   160    1
    70    22    21    1
    71    22    23    2
    72    21    18    1
    73   178   175    1
    74    94    93    1
    75    18    19    1
    76   135   136    1
    77   110   108    1
    78   108   109    1
    79    96    93    1
    80   177   176    2
    81    19    20    2
    82   175   176    1
    83   175   174    1
    84    93    92    1
    85   160   157    1
    86   145   143    1
    87    27    33   am
    88    27    28    2
    89    44    43    2
    90    33    34    1
    91   159   158    2
    92   157   158    1
    93   157   156    1
    94   158   167   am
    95   143   144    1
    96   143   142    1
    97    43    42    1
    98    43    45   am
    99    34    35    1
   100    42    41    1
   101    88    87    2
   102   167   168    1
   103   168   169    1
   104   168   171    1
   105   172   171    1
   106    80    79    2
   107   139   142    1
   108   139   138    1
   109   139   140    1
   110   170   169    2
   111   188   189    1
   112   188   187    1
   113   141   140    2
   114    35    36    2
   115    90    89    1
   116    86    87    1
   117    86    89    1
   118    86    85    1
   119   171   173    1
   120    37    38    1
   121    91    89    1
   122    41    38    1
   123   140   146   am
   124    79    85   am
   125    79    78    1
   126    83    84    1
   127    83    82    1
   128    38    39    1
   129    81    78    1
   130    81    82    1
   131    75    76    1
   132    75    74    1
   133    78    77    1
   134   187   186    1
   135   146   147    1
   136   205   203    1
   137   186   183    1
   138   149   148    2
   139   148   147    1
   140    74    73    1
   141    39    40    2
   142    72    71    2
   143   147   150    1
   144    66    68   ar
   145    66    64   ar
   146   203   202    1
   147   183   184    1
   148   183   182    1
   149    63    64   ar
   150    63    61   ar
   151    68    67   ar
   152   204   202    1
   153    71    70    1
   154    64    62   ar
   155   184   185    2
   156    73    70    1
   157    70    69    1
   158   202   199    1
   159   150   151    1
   160    61    60   ar
   161    58    57    2
   162    67    65   ar
   163    62    60   ar
   164    62    65   ar
   165   153   151   ar
   166   153   155   ar
   167   151   152   ar
   168    69    57   am
   169    57    56    1
   170    60    59    1
   171   199   198    1
   172   199   200    1
   173   155   154   ar
   174   152   154   ar
   175   211   210    1
   176   198   192   am
   177   212   210    1
   178   200   201    2
   179    59    56    1
   180    56    55    1
   181   210   207    1
   182   190   191    1
   183   192   191    1
   184   192   193    2
   185   194   196    1
   186   194   191    1
   187   194   195    1
   188   197   195    1
   189   207   208    1
   190   207   206    1
   191   208   209    2
   192    49    48    2
   193    48    47    1
   194    47    50    1
   195    47    46    1
   196    50    51    1
   197    51    52    1
   198    54    52   am
   199    52    53    2
