@<TRIPOS>MOLECULE
tmp/3b67A00.pdb
 223 210 0 0 0
SMALL
GASTEIGER

@<TRIPOS>ATOM
      1  N         32.2300    0.2110   -3.4850 N.3    31  LEU31      -0.1245
      2  CA        32.3640   -0.0610   -2.0570 C.3    31  LEU31       0.1561
      3  C         33.4600    0.7770   -1.4240 C.2    31  LEU31       0.2260
      4  O         33.3650    1.1380   -0.2450 O.2    31  LEU31      -0.2867
      5  CB        32.6380   -1.5490   -1.8040 C.3    31  LEU31       0.0270
      6  CG        31.4090   -2.4110   -1.4910 C.3    31  LEU31       0.0019
      7  CD1       30.7190   -1.8910   -0.2190 C.3    31  LEU31       0.0001
      8  CD2       30.4440   -2.3690   -2.6740 C.3    31  LEU31       0.0001
      9  N         31.8450    3.8930   -0.8050 N.3    34  LEU34      -0.1231
     10  CA        30.8830    3.7990    0.2900 C.3    34  LEU34       0.1693
     11  C         31.5970    3.8190    1.6300 C.2    34  LEU34       0.2592
     12  O         31.0840    4.3930    2.5830 O.2    34  LEU34      -0.2718
     13  CB        30.0300    2.5220    0.1870 C.3    34  LEU34       0.0284
     14  CG        28.7720    2.5830   -0.6830 C.3    34  LEU34       0.0019
     15  CD1       28.1860    1.1910   -0.8370 C.3    34  LEU34       0.0001
     16  CD2       27.7580    3.5380   -0.0580 C.3    34  LEU34       0.0001
     17  N         32.7730    3.1890    1.6970 N.am   35  ASN35      -0.1974
     18  CA        33.5580    3.1430    2.9360 C.3    35  ASN35       0.1688
     19  C         34.1140    4.5250    3.2420 C.2    35  ASN35       0.2292
     20  O         34.0390    4.9940    4.3730 O.2    35  ASN35      -0.2864
     21  CB        34.7330    2.1530    2.8280 C.3    35  ASN35       0.1181
     22  CG        34.2850    0.7030    2.7440 C.2    35  ASN35       0.2629
     23  OD1       33.2090    0.3470    3.2170 O.2    35  ASN35      -0.2716
     24  ND2       35.1240   -0.1450    2.1580 N.am   35  ASN35      -0.0877
     25  N         33.0120    7.4270    2.1900 N.3    37  LEU37      -0.1231
     26  CA        31.8760    8.2700    2.5470 C.3    37  LEU37       0.1693
     27  C         31.4760    7.9880    3.9990 C.2    37  LEU37       0.2592
     28  O         31.2970    8.9170    4.7950 O.2    37  LEU37      -0.2718
     29  CB        30.6900    7.9860    1.6090 C.3    37  LEU37       0.0284
     30  CG        29.3780    8.6940    1.9690 C.3    37  LEU37       0.0019
     31  CD1       29.5570   10.2150    1.8890 C.3    37  LEU37       0.0001
     32  CD2       28.2800    8.2280    1.0380 C.3    37  LEU37       0.0001
     33  N         31.3520    6.7090    4.3410 N.am   38  GLY38      -0.1957
     34  CA        30.9770    6.3390    5.6940 C.3    38  GLY38       0.1869
     35  C         31.8840    6.9780    6.7250 C.2    38  GLY38       0.2309
     36  O         31.4240    7.4660    7.7610 O.2    38  GLY38      -0.2863
     37  N         31.3060   10.7070    6.9100 N.3    41  GLN41      -0.1245
     38  CA        30.0570   10.9120    7.6290 C.3    41  GLN41       0.1566
     39  C         30.1770   10.7210    9.1440 C.2    41  GLN41       0.2260
     40  O         29.6420   11.5180    9.9160 O.2    41  GLN41      -0.2867
     41  CB        28.9720    9.9940    7.0390 C.3    41  GLN41       0.0367
     42  CG        28.4260   10.5290    5.6980 C.3    41  GLN41       0.0905
     43  CD        27.4730    9.5780    4.9910 C.2    41  GLN41       0.2608
     44  OE1       26.6270   10.0020    4.2030 O.2    41  GLN41      -0.2717
     45  NE2       27.6160    8.2900    5.2540 N.am   41  GLN41      -0.0878
     46  N         28.7550    4.6710   18.1020 N.3    68  GLN68      -0.1245
     47  CA        29.2240    3.6200   17.2090 C.3    68  GLN68       0.1566
     48  C         28.1700    2.5400   16.9600 C.2    68  GLN68       0.2260
     49  O         28.0650    2.0250   15.8470 O.2    68  GLN68      -0.2867
     50  CB        30.5090    3.0080   17.7690 C.3    68  GLN68       0.0367
     51  CG        31.5220    4.0780   18.1520 C.3    68  GLN68       0.0905
     52  CD        32.8670    3.5210   18.5670 C.2    68  GLN68       0.2608
     53  OE1       32.9500    2.5780   19.3530 O.2    68  GLN68      -0.2717
     54  NE2       33.9310    4.1160   18.0510 N.am   68  GLN68      -0.0878
     55  N         25.3290    4.2370   14.8250 N.3    71  TRP71      -0.1227
     56  CA        25.8410    4.8240   13.5900 C.3    71  TRP71       0.1737
     57  C         25.1050    4.3760   12.3120 C.2    71  TRP71       0.2595
     58  O         24.5660    5.2120   11.5750 O.2    71  TRP71      -0.2718
     59  CB        27.3520    4.5430   13.5110 C.3    71  TRP71       0.0564
     60  CG        28.0730    5.0410   12.2870 C.ar   71  TRP71       0.0003
     61  CD1       27.6950    6.0590   11.4580 C.ar   71  TRP71       0.0946
     62  CD2       29.3110    4.5370   11.7650 C.ar   71  TRP71       0.0152
     63  NE1       28.6190    6.2160   10.4470 N.ar   71  TRP71      -0.2442
     64  CE2       29.6200    5.2940   10.6130 C.ar   71  TRP71       0.0810
     65  CE3       30.1880    3.5130   12.1600 C.ar   71  TRP71       0.0012
     66  CZ2       30.7720    5.0590    9.8480 C.ar   71  TRP71       0.0191
     67  CZ3       31.3330    3.2790   11.3990 C.ar   71  TRP71       0.0001
     68  CH2       31.6120    4.0510   10.2550 C.ar   71  TRP71       0.0015
     69  N         25.0400    3.0730   12.0600 N.am   72  MET72      -0.1979
     70  CA        24.3850    2.5610   10.8540 C.3    72  MET72       0.1605
     71  C         22.9240    2.9700   10.7010 C.2    72  MET72       0.2287
     72  O         22.5150    3.4360    9.6370 O.2    72  MET72      -0.2864
     73  CB        24.4850    1.0280   10.7900 C.3    72  MET72       0.0413
     74  CG        24.0300    0.4330    9.4510 C.3    72  MET72       0.0598
     75  SD        25.1660    0.8090    8.0780 S.3    72  MET72      -0.1393
     76  CE        26.3180   -0.5990    8.2180 C.3    72  MET72       0.0692
     77  N         22.4140    6.7180    9.7870 N.3    75  MET75      -0.1230
     78  CA        22.7430    6.9630    8.3890 C.3    75  MET75       0.1702
     79  C         21.6530    6.4520    7.4660 C.2    75  MET75       0.2592
     80  O         21.2410    7.1390    6.5380 O.2    75  MET75      -0.2718
     81  CB        24.0520    6.2670    8.0490 C.3    75  MET75       0.0401
     82  CG        25.1620    6.5900    9.0070 C.3    75  MET75       0.0596
     83  SD        26.2480    7.8630    8.3860 S.3    75  MET75      -0.1393
     84  CE        27.5320    6.7890    7.6090 C.3    75  MET75       0.0692
     85  N         21.2010    5.2360    7.7230 N.am   76  VAL76      -0.1980
     86  CA        20.1550    4.6280    6.9270 C.3    76  VAL76       0.1595
     87  C         18.9450    5.5490    6.8920 C.2    76  VAL76       0.2287
     88  O         18.3660    5.8080    5.8320 O.2    76  VAL76      -0.2864
     89  CB        19.7320    3.2670    7.5230 C.3    76  VAL76       0.0276
     90  CG1       18.4420    2.7800    6.8730 C.3    76  VAL76       0.0022
     91  CG2       20.8340    2.2520    7.3180 C.3    76  VAL76       0.0022
     92  N         19.8090    8.9210    5.0510 N.3    79  MET79      -0.1245
     93  CA        19.9730    8.6660    3.6240 C.3    79  MET79       0.1570
     94  C         18.6110    8.4390    2.9740 C.2    79  MET79       0.2261
     95  O         18.3880    8.8450    1.8330 O.2    79  MET79      -0.2867
     96  CB        20.8870    7.4470    3.4120 C.3    79  MET79       0.0387
     97  CG        21.3490    7.2250    1.9710 C.3    79  MET79       0.0595
     98  SD        20.1280    6.4290    0.9010 S.3    79  MET79      -0.1393
     99  CE        20.3410    4.7260    1.3250 C.3    79  MET79       0.0692
    100  N         17.0100   11.7570    2.5720 N.3    82  ARG82      -0.1245
    101  CA        17.6750   12.4720    1.4790 C.3    82  ARG82       0.1563
    102  C         17.1800   11.9620    0.1290 C.2    82  ARG82       0.2260
    103  O         17.0010   12.7340   -0.8140 O.2    82  ARG82      -0.2867
    104  CB        19.1930   12.2840    1.5430 C.3    82  ARG82       0.0307
    105  CG        19.9120   13.1820    2.5300 C.3    82  ARG82       0.0489
    106  CD        21.3950   13.3090    2.1570 C.3    82  ARG82       0.2205
    107  NE        22.0910   12.0210    2.1330 N.pl3  82  ARG82      -0.0865
    108  CZ        22.4640   11.3510    3.2200 C.cat  82  ARG82       0.5346
    109  NH1       22.2100   11.8470    4.4210 N.pl3  82  ARG82       0.1354
    110  NH2       23.0950   10.1880    3.1110 N.pl3  82  ARG82       0.1354
    111  N         22.9880    8.4510   -1.4480 N.3    94  PHE94      -0.1241
    112  CA        23.9830    8.3070   -0.3830 C.3    94  PHE94       0.1605
    113  C         24.7190    9.6330   -0.2120 C.2    94  PHE94       0.2264
    114  O         25.0400   10.0460    0.8980 O.2    94  PHE94      -0.2867
    115  CB        24.9940    7.2140   -0.7240 C.3    94  PHE94       0.0534
    116  CG        24.4130    5.8320   -0.7580 C.ar   94  PHE94      -0.0203
    117  CD1       23.8850    5.3110   -1.9360 C.ar   94  PHE94      -0.0042
    118  CD2       24.4370    5.0320    0.3790 C.ar   94  PHE94      -0.0042
    119  CE1       23.3980    4.0100   -1.9800 C.ar   94  PHE94      -0.0003
    120  CE2       23.9510    3.7300    0.3430 C.ar   94  PHE94      -0.0003
    121  CZ        23.4310    3.2170   -0.8400 C.ar   94  PHE94      -0.0000
    122  N         24.5690   -5.2150   -2.8070 N.3   110  MET110     -0.1245
    123  CA        23.8000   -4.8340   -1.6230 C.3   110  MET110      0.1570
    124  C         22.3650   -4.5820   -2.0420 C.2   110  MET110      0.2261
    125  O         21.6530   -3.8130   -1.4060 O.2   110  MET110     -0.2867
    126  CB        24.3430   -3.5420   -1.0160 C.3   110  MET110      0.0387
    127  CG        25.8330   -3.5070   -0.7870 C.3   110  MET110      0.0595
    128  SD        26.3580   -1.8590   -0.2650 S.3   110  MET110     -0.1393
    129  CE        25.7460   -1.8280    1.3780 C.3   110  MET110      0.0692
    130  N         15.8600    0.0200    1.8840 N.3   117  MET117     -0.1245
    131  CA        16.0910    1.4340    2.1520 C.3   117  MET117      0.1570
    132  C         15.2740    2.3230    1.2140 C.2   117  MET117      0.2261
    133  O         14.8140    3.3970    1.6150 O.2   117  MET117     -0.2867
    134  CB        17.5830    1.7600    2.0380 C.3   117  MET117      0.0387
    135  CG        18.4040    1.1100    3.1320 C.3   117  MET117      0.0595
    136  SD        20.0900    1.7370    3.2530 S.3   117  MET117     -0.1393
    137  CE        20.8650    0.8530    1.9100 C.3   117  MET117      0.0692
    138  N         22.8950   -4.4980    6.8230 N.3   203  LEU203     -0.1231
    139  CA        24.0490   -3.7880    6.3060 C.3   203  LEU203      0.1693
    140  C         25.2770   -4.1770    7.1320 C.2   203  LEU203      0.2592
    141  O         26.3650   -4.3650    6.5850 O.2   203  LEU203     -0.2718
    142  CB        23.8000   -2.2760    6.3570 C.3   203  LEU203      0.0284
    143  CG        22.8190   -1.7540    5.2920 C.3   203  LEU203      0.0019
    144  CD1       22.3080   -0.3890    5.6930 C.3   203  LEU203      0.0001
    145  CD2       23.5050   -1.6960    3.9240 C.3   203  LEU203      0.0001
    146  N         25.0830   -4.3050    8.4440 N.am  204  HIS204     -0.1976
    147  CA        26.1450   -4.6850    9.3750 C.3   204  HIS204      0.1656
    148  C         26.7550   -6.0160    8.9680 C.2   204  HIS204      0.2291
    149  O         27.9810   -6.1590    8.8730 O.2   204  HIS204     -0.2864
    150  CB        25.5770   -4.8230   10.7920 C.3   204  HIS204      0.0771
    151  CG        25.5260   -3.5380   11.5530 C.ar  204  HIS204      0.0820
    152  ND1       24.5170   -3.2420   12.4440 N.ar  204  HIS204     -0.2267
    153  CD2       26.3860   -2.4930   11.5950 C.ar  204  HIS204      0.1154
    154  CE1       24.7580   -2.0700   13.0040 C.ar  204  HIS204      0.1986
    155  NE2       25.8870   -1.5960   12.5070 N.ar  204  HIS204     -0.2212
    156  N         26.5080   -7.5100    6.0970 N.3   206  PHE206     -0.1227
    157  CA        27.1570   -7.3440    4.8060 C.3   206  PHE206      0.1736
    158  C         28.5290   -6.7220    4.9970 C.2   206  PHE206      0.2596
    159  O         29.5240   -7.2000    4.4560 O.2   206  PHE206     -0.2718
    160  CB        26.2960   -6.4540    3.9030 C.3   206  PHE206      0.0547
    161  CG        27.0170   -5.9440    2.6860 C.ar  206  PHE206     -0.0202
    162  CD1       27.7110   -4.7370    2.7300 C.ar  206  PHE206     -0.0042
    163  CD2       27.0180   -6.6800    1.5020 C.ar  206  PHE206     -0.0042
    164  CE1       28.4000   -4.2690    1.6070 C.ar  206  PHE206     -0.0003
    165  CE2       27.6970   -6.2290    0.3790 C.ar  206  PHE206     -0.0003
    166  CZ        28.3930   -5.0180    0.4320 C.ar  206  PHE206     -0.0000
    167  N         28.5800   -5.6550    5.7800 N.am  207  THR207     -0.1953
    168  CA        29.8350   -4.9640    6.0290 C.3   207  THR207      0.1897
    169  C         30.8580   -5.8540    6.7310 C.2   207  THR207      0.2313
    170  O         32.0520   -5.8370    6.4030 O.2   207  THR207     -0.2863
    171  CB        29.6100   -3.7190    6.8910 C.3   207  THR207      0.1794
    172  OG1       28.7660   -2.7940    6.1930 O.3   207  THR207     -0.2208
    173  CG2       30.9290   -3.0680    7.2090 C.3   207  THR207      0.0378
    174  N         32.2060   -8.4740    4.3780 N.3   210  LEU210     -0.1245
    175  CA        33.0920   -7.8150    3.4210 C.3   210  LEU210      0.1561
    176  C         34.4740   -7.4700    4.0030 C.2   210  LEU210      0.2260
    177  O         35.4950   -7.5940    3.3210 O.2   210  LEU210     -0.2867
    178  CB        32.4140   -6.5590    2.8650 C.3   210  LEU210      0.0270
    179  CG        33.1820   -5.8410    1.7540 C.3   210  LEU210      0.0019
    180  CD1       33.6460   -6.8500    0.7040 C.3   210  LEU210      0.0001
    181  CD2       32.2830   -4.7770    1.1360 C.3   210  LEU210      0.0001
    182  N         39.4270   -0.4430    3.4010 N.3   221  PHE221     -0.1241
    183  CA        38.6900   -0.0710    4.6110 C.3   221  PHE221      0.1605
    184  C         39.4750    0.9330    5.4450 C.2   221  PHE221      0.2264
    185  O         40.5940    0.6600    5.8730 O.2   221  PHE221     -0.2867
    186  CB        38.3640   -1.2940    5.4760 C.3   221  PHE221      0.0534
    187  CG        37.1010   -2.0040    5.0740 C.ar  221  PHE221     -0.0203
    188  CD1       37.1380   -3.0700    4.1810 C.ar  221  PHE221     -0.0042
    189  CD2       35.8710   -1.5940    5.5770 C.ar  221  PHE221     -0.0042
    190  CE1       35.9610   -3.7220    3.7970 C.ar  221  PHE221     -0.0003
    191  CE2       34.6910   -2.2370    5.2000 C.ar  221  PHE221     -0.0003
    192  CZ        34.7370   -3.3030    4.3100 C.ar  221  PHE221     -0.0000
    193  N         36.8910    3.0050   10.6500 N.3   225  MET225     -0.1245
    194  CA        35.8080    2.1080   10.2700 C.3   225  MET225      0.1570
    195  C         36.1560    0.6600   10.5880 C.2   225  MET225      0.2261
    196  O         35.4070   -0.0260   11.2830 O.2   225  MET225     -0.2867
    197  CB        35.5130    2.2650    8.7800 C.3   225  MET225      0.0387
    198  CG        34.3360    1.4570    8.2980 C.3   225  MET225      0.0595
    199  SD        33.9090    1.8740    6.6010 S.3   225  MET225     -0.1393
    200  CE        33.0790    3.4580    6.8590 C.3   225  MET225      0.0692
    201  N         35.8480   -0.2190   14.1720 N.3   228  ILE228     -0.1231
    202  CA        34.4670   -0.3250   14.6200 C.3   228  ILE228      0.1692
    203  C         33.8200   -1.6240   14.1620 C.2   228  ILE228      0.2591
    204  O         33.1050   -2.2740   14.9280 O.2   228  ILE228     -0.2718
    205  CB        33.6310    0.8770   14.1180 C.3   228  ILE228      0.0266
    206  CG1       34.0050    2.1260   14.9320 C.3   228  ILE228      0.0019
    207  CG2       32.1350    0.5650   14.2240 C.3   228  ILE228      0.0020
    208  CD1       33.3830    3.4210   14.4380 C.3   228  ILE228      0.0001
    209  N         34.0820   -2.0030   12.9140 N.am  229  ILE229     -0.1980
    210  CA        33.5250   -3.2180   12.3460 C.3   229  ILE229      0.1595
    211  C         34.0510   -4.4560   13.0560 C.2   229  ILE229      0.2287
    212  O         33.3080   -5.4190   13.2710 O.2   229  ILE229     -0.2864
    213  CB        33.8810   -3.3590   10.8480 C.3   229  ILE229      0.0276
    214  CG1       33.3230   -2.1770   10.0610 C.3   229  ILE229      0.0022
    215  CG2       33.3240   -4.6720   10.2970 C.3   229  ILE229      0.0022
    216  CD1       33.6740   -2.2080    8.5870 C.3   229  ILE229      0.0001
    217  N         30.7550   -3.8990   15.7280 N.3   233  VAL233     -0.1245
    218  CA        29.7310   -4.6160   14.9730 C.3   233  VAL233      0.1561
    219  C         29.5680   -6.0860   15.3560 C.2   233  VAL233      0.2260
    220  O         28.4620   -6.6210   15.3000 O.2   233  VAL233     -0.2867
    221  CB        29.9790   -4.4930   13.4530 C.3   233  VAL233      0.0252
    222  CG1       28.9210   -5.2760   12.6780 C.3   233  VAL233      0.0019
    223  CG2       29.9460   -3.0120   13.0490 C.3   233  VAL233      0.0019
@<TRIPOS>BOND
     1     1     2    1
     2   122   123    1
     3     8     6    1
     4     2     5    1
     5     2     3    1
     6   124   123    1
     7   124   125    2
     8   119   117   ar
     9   119   121   ar
    10   117   116   ar
    11     5     6    1
    12   123   126    1
    13     6     7    1
    14   111   112    1
    15     3     4    2
    16   126   127    1
    17   121   120   ar
    18    15    14    1
    19   103   102    2
    20     9    10    1
    21   127   128    1
    22   116   115    1
    23   116   118   ar
    24   115   112    1
    25    14    16    1
    26    14    13    1
    27   112   113    1
    28   128   129    1
    29   113   114    2
    30   102   101    1
    31    13    10    1
    32    10    11    1
    33   120   118   ar
    34   165   166   ar
    35   165   163   ar
    36   166   164   ar
    37   180   179    1
    38    98    99    1
    39    98    97    1
    40    32    30    1
    41   181   179    1
    42   132   133    2
    43   132   131    1
    44   101   104    1
    45   101   100    1
    46   163   161   ar
    47   104   105    1
    48   164   162   ar
    49    29    30    1
    50    29    26    1
    51    11    17   am
    52    11    12    2
    53    17    18    1
    54   179   178    1
    55    95    94    2
    56   130   131    1
    57    31    30    1
    58   137   136    1
    59    97    96    1
    60   134   131    1
    61   134   135    1
    62   107   106    1
    63   107   108    2
    64   106   105    1
    65    24    22   am
    66    25    26    1
    67    26    27    1
    68   161   162   ar
    69   161   160    1
    70    22    21    1
    71    22    23    2
    72    21    18    1
    73   178   175    1
    74    18    19    1
    75    94    93    1
    76   110   108    1
    77   135   136    1
    78   108   109    1
    79    19    20    2
    80   177   176    2
    81   182   183    1
    82    96    93    1
    83   175   176    1
    84   175   174    1
    85    93    92    1
    86   190   188   ar
    87   190   192   ar
    88   160   157    1
    89   145   143    1
    90    27    33   am
    91    27    28    2
    92   188   187   ar
    93    44    43    2
    94   192   191   ar
    95    33    34    1
    96   159   158    2
    97   183   184    1
    98   183   186    1
    99   157   158    1
   100   157   156    1
   101    43    45   am
   102    43    42    1
   103   158   167   am
   104   187   186    1
   105   187   189   ar
   106   191   189   ar
   107   143   144    1
   108   143   142    1
   109   184   185    2
   110    34    35    1
   111    42    41    1
   112   167   168    1
   113    88    87    2
   114   168   169    1
   115   168   171    1
   116   172   171    1
   117   139   142    1
   118   139   138    1
   119   139   140    1
   120   170   169    2
   121    80    79    2
   122   141   140    2
   123   199   200    1
   124   199   198    1
   125    35    36    2
   126    90    89    1
   127   171   173    1
   128    87    86    1
   129    37    38    1
   130    86    89    1
   131    86    85    1
   132    41    38    1
   133   140   146   am
   134    91    89    1
   135    79    85   am
   136    79    78    1
   137    84    83    1
   138    38    39    1
   139    81    78    1
   140    81    82    1
   141    75    76    1
   142    75    74    1
   143   198   197    1
   144    83    82    1
   145    78    77    1
   146   146   147    1
   147   216   214    1
   148   197   194    1
   149   149   148    2
   150   148   147    1
   151    39    40    2
   152   147   150    1
   153    74    73    1
   154    72    71    2
   155    66    68   ar
   156    66    64   ar
   157   214   213    1
   158    68    67   ar
   159   194   195    1
   160   194   193    1
   161   215   213    1
   162    63    64   ar
   163    63    61   ar
   164   195   196    2
   165    64    62   ar
   166    71    70    1
   167    73    70    1
   168   150   151    1
   169   213   210    1
   170    70    69    1
   171    67    65   ar
   172    61    60   ar
   173   151   153   ar
   174   151   152   ar
   175    58    57    2
   176   153   155   ar
   177    62    65   ar
   178    62    60   ar
   179    69    57   am
   180    60    59    1
   181    57    56    1
   182   210   209    1
   183   210   211    1
   184   152   154   ar
   185   155   154   ar
   186   222   221    1
   187   209   203   am
   188   223   221    1
   189   211   212    2
   190   221   218    1
   191    59    56    1
   192    56    55    1
   193   205   207    1
   194   205   202    1
   195   205   206    1
   196   203   202    1
   197   203   204    2
   198   201   202    1
   199   208   206    1
   200   218   219    1
   201   218   217    1
   202   220   219    2
   203    49    48    2
   204    48    47    1
   205    47    50    1
   206    47    46    1
   207    50    51    1
   208    54    52   am
   209    51    52    1
   210    52    53    2
