@<TRIPOS>MOLECULE
tmp/3b68A00.pdb
 252 239 0 0 0
SMALL
GASTEIGER

@<TRIPOS>ATOM
      1  N         32.1700    0.2910   -3.5580 N.3    31  LEU31      -0.1245
      2  CA        32.3060    0.0010   -2.1390 C.3    31  LEU31       0.1561
      3  C         33.3810    0.8580   -1.4780 C.2    31  LEU31       0.2260
      4  O         33.2010    1.3360   -0.3560 O.2    31  LEU31      -0.2867
      5  CB        32.5830   -1.4970   -1.9260 C.3    31  LEU31       0.0270
      6  CG        31.3380   -2.3720   -1.6940 C.3    31  LEU31       0.0019
      7  CD1       30.6850   -1.9850   -0.3710 C.3    31  LEU31       0.0001
      8  CD2       30.3440   -2.2020   -2.8380 C.3    31  LEU31       0.0001
      9  N         31.8180    3.9880   -0.8650 N.3    34  LEU34      -0.1231
     10  CA        30.7940    3.9000    0.1670 C.3    34  LEU34       0.1693
     11  C         31.5000    3.8770    1.5260 C.2    34  LEU34       0.2592
     12  O         31.0000    4.4350    2.4910 O.2    34  LEU34      -0.2718
     13  CB        29.9320    2.6400   -0.0090 C.3    34  LEU34       0.0284
     14  CG        28.7080    2.7950   -0.9290 C.3    34  LEU34       0.0019
     15  CD1       28.0340    1.4370   -1.1670 C.3    34  LEU34       0.0001
     16  CD2       27.7350    3.7940   -0.3050 C.3    34  LEU34       0.0001
     17  N         32.6690    3.2390    1.5920 N.am   35  ASN35      -0.1974
     18  CA        33.4280    3.1700    2.8400 C.3    35  ASN35       0.1688
     19  C         33.9580    4.5500    3.1980 C.2    35  ASN35       0.2292
     20  O         33.8350    4.9880    4.3380 O.2    35  ASN35      -0.2864
     21  CB        34.5980    2.1810    2.7250 C.3    35  ASN35       0.1181
     22  CG        34.1420    0.7370    2.7560 C.2    35  ASN35       0.2629
     23  OD1       33.0710    0.4290    3.2800 O.2    35  ASN35      -0.2716
     24  ND2       34.9600   -0.1600    2.2170 N.am   35  ASN35      -0.0877
     25  N         32.8070    7.3830    2.1380 N.3    37  LEU37      -0.1231
     26  CA        31.6360    8.1930    2.4400 C.3    37  LEU37       0.1693
     27  C         31.1650    7.9210    3.8580 C.2    37  LEU37       0.2592
     28  O         30.8930    8.8520    4.6210 O.2    37  LEU37      -0.2718
     29  CB        30.5040    7.8890    1.4630 C.3    37  LEU37       0.0284
     30  CG        29.2130    8.6490    1.7750 C.3    37  LEU37       0.0019
     31  CD1       29.4760   10.1730    1.7410 C.3    37  LEU37       0.0001
     32  CD2       28.1540    8.2560    0.7690 C.3    37  LEU37       0.0001
     33  N         31.0640    6.6410    4.2040 N.am   38  GLY38      -0.1957
     34  CA        30.6280    6.2740    5.5370 C.3    38  GLY38       0.1869
     35  C         31.4860    6.9640    6.5740 C.2    38  GLY38       0.2309
     36  O         30.9860    7.5070    7.5530 O.2    38  GLY38      -0.2863
     37  N         30.9310   10.7240    6.8310 N.3    41  GLN41      -0.1245
     38  CA        29.7030   11.0190    7.5500 C.3    41  GLN41       0.1566
     39  C         29.8690   10.8420    9.0570 C.2    41  GLN41       0.2260
     40  O         29.3450   11.6340    9.8290 O.2    41  GLN41      -0.2867
     41  CB        28.5510   10.1560    7.0150 C.3    41  GLN41       0.0367
     42  CG        28.2040   10.5250    5.5730 C.3    41  GLN41       0.0905
     43  CD        26.8810    9.9730    5.0920 C.2    41  GLN41       0.2608
     44  OE1       26.5690   10.0520    3.9040 O.2    41  GLN41      -0.2717
     45  NE2       26.0910    9.4200    6.0040 N.am   41  GLN41      -0.0878
     46  N         28.8230    4.8230   17.7140 N.3    68  GLN68      -0.1231
     47  CA        29.3120    3.7530   16.8630 C.3    68  GLN68       0.1698
     48  C         28.2410    2.7010   16.5420 C.2    68  GLN68       0.2592
     49  O         28.1030    2.2920   15.3860 O.2    68  GLN68      -0.2718
     50  CB        30.5550    3.1260   17.5020 C.3    68  GLN68       0.0381
     51  CG        31.8390    3.8770   17.1280 C.3    68  GLN68       0.0905
     52  CD        33.0450    3.4880   17.9670 C.2    68  GLN68       0.2608
     53  OE1       33.1570    2.3600   18.4360 O.2    68  GLN68      -0.2717
     54  NE2       33.9650    4.4280   18.1450 N.am   68  GLN68      -0.0878
     55  N         27.4710    2.2850   17.5410 N.am   69  TYR69      -0.1976
     56  CA        26.4130    1.2900   17.3170 C.3    69  TYR69       0.1639
     57  C         25.3180    1.7890   16.3790 C.2    69  TYR69       0.2290
     58  O         24.8840    1.0740   15.4750 O.2    69  TYR69      -0.2864
     59  CB        25.7270    0.8930   18.6290 C.3    69  TYR69       0.0560
     60  CG        26.6180    0.2780   19.6720 C.ar   69  TYR69      -0.0198
     61  CD1       27.6740   -0.5640   19.3200 C.ar   69  TYR69      -0.0009
     62  CD2       26.3970    0.5260   21.0210 C.ar   69  TYR69      -0.0009
     63  CE1       28.4870   -1.1350   20.2970 C.ar   69  TYR69       0.0417
     64  CE2       27.2050   -0.0430   22.0000 C.ar   69  TYR69       0.0417
     65  CZ        28.2420   -0.8680   21.6330 C.ar   69  TYR69       0.1957
     66  OH        29.0260   -1.4300   22.6100 O.3    69  TYR69      -0.2866
     67  N         25.5870    4.2390   14.2430 N.3    71  TRP71      -0.1227
     68  CA        26.1820    4.8580   13.0580 C.3    71  TRP71       0.1737
     69  C         25.4810    4.4530   11.7470 C.2    71  TRP71       0.2595
     70  O         25.0990    5.3120   10.9440 O.2    71  TRP71      -0.2718
     71  CB        27.6810    4.5010   13.0200 C.3    71  TRP71       0.0564
     72  CG        28.4740    4.9590   11.8190 C.ar   71  TRP71       0.0003
     73  CD1       28.1110    5.8900   10.8890 C.ar   71  TRP71       0.0946
     74  CD2       29.7940    4.5210   11.4490 C.ar   71  TRP71       0.0152
     75  NE1       29.1180    6.0600    9.9670 N.ar   71  TRP71      -0.2442
     76  CE2       30.1610    5.2330   10.2870 C.ar   71  TRP71       0.0810
     77  CE3       30.7000    3.5950   11.9910 C.ar   71  TRP71       0.0012
     78  CZ2       31.4010    5.0510    9.6500 C.ar   71  TRP71       0.0191
     79  CZ3       31.9350    3.4100   11.3590 C.ar   71  TRP71       0.0001
     80  CH2       32.2730    4.1380   10.2010 C.ar   71  TRP71       0.0015
     81  N         25.3010    3.1530   11.5360 N.am   72  MET72      -0.1979
     82  CA        24.6460    2.6620   10.3270 C.3    72  MET72       0.1605
     83  C         23.1870    3.1170   10.2220 C.2    72  MET72       0.2287
     84  O         22.7680    3.6450    9.1930 O.2    72  MET72      -0.2864
     85  CB        24.7040    1.1320   10.2710 C.3    72  MET72       0.0413
     86  CG        24.1860    0.5340    8.9540 C.3    72  MET72       0.0598
     87  SD        25.2220    0.9280    7.5250 S.3    72  MET72      -0.1393
     88  CE        26.4670   -0.4350    7.6520 C.3    72  MET72       0.0692
     89  N         22.6480    6.8450    9.3120 N.3    75  MET75      -0.1230
     90  CA        22.9460    7.1470    7.9220 C.3    75  MET75       0.1702
     91  C         21.8280    6.6890    7.0210 C.2    75  MET75       0.2592
     92  O         21.4660    7.3830    6.0700 O.2    75  MET75      -0.2718
     93  CB        24.2550    6.4810    7.4910 C.3    75  MET75       0.0401
     94  CG        25.4700    7.0610    8.1320 C.3    75  MET75       0.0596
     95  SD        26.9590    6.5350    7.2600 S.3    75  MET75      -0.1393
     96  CE        26.8670    4.8080    7.4640 C.3    75  MET75       0.0692
     97  N         21.2820    5.5160    7.3310 N.am   76  VAL76      -0.1980
     98  CA        20.1920    4.9280    6.5630 C.3    76  VAL76       0.1595
     99  C         18.9840    5.8500    6.5530 C.2    76  VAL76       0.2287
    100  O         18.3850    6.0980    5.5130 O.2    76  VAL76      -0.2864
    101  CB        19.7580    3.5680    7.1680 C.3    76  VAL76       0.0276
    102  CG1       18.4420    3.1180    6.5560 C.3    76  VAL76       0.0022
    103  CG2       20.8400    2.5150    6.9260 C.3    76  VAL76       0.0022
    104  N         19.7010    9.0570    4.6690 N.3    79  MET79      -0.1245
    105  CA        19.8620    8.8160    3.2400 C.3    79  MET79       0.1570
    106  C         18.4990    8.6330    2.5890 C.2    79  MET79       0.2261
    107  O         18.2800    9.0840    1.4640 O.2    79  MET79      -0.2867
    108  CB        20.7600    7.5950    2.9980 C.3    79  MET79       0.0387
    109  CG        21.1900    7.3820    1.5440 C.3    79  MET79       0.0595
    110  SD        19.9650    6.5420    0.5070 S.3    79  MET79      -0.1393
    111  CE        20.4280    4.8100    0.7120 C.3    79  MET79       0.0692
    112  N         16.9300   12.0060    2.2500 N.3    82  ARG82      -0.1245
    113  CA        17.5790   12.6990    1.1360 C.3    82  ARG82       0.1563
    114  C         17.0700   12.1730   -0.1930 C.2    82  ARG82       0.2260
    115  O         16.8150   12.9400   -1.1150 O.2    82  ARG82      -0.2867
    116  CB        19.0990   12.5050    1.1570 C.3    82  ARG82       0.0307
    117  CG        19.8340   13.2680    2.2260 C.3    82  ARG82       0.0489
    118  CD        21.3130   13.3790    1.8710 C.3    82  ARG82       0.2205
    119  NE        21.9810   12.0790    1.7330 N.pl3  82  ARG82      -0.0865
    120  CZ        22.4130   11.3420    2.7530 C.cat  82  ARG82       0.5346
    121  NH1       22.2470   11.7680    3.9960 N.pl3  82  ARG82       0.1354
    122  NH2       23.0320   10.1860    2.5300 N.pl3  82  ARG82       0.1354
    123  N         22.8920    8.5860   -1.8450 N.3    94  PHE94      -0.1241
    124  CA        23.8850    8.4250   -0.7820 C.3    94  PHE94       0.1605
    125  C         24.6290    9.7430   -0.5990 C.2    94  PHE94       0.2264
    126  O         24.9680   10.1500    0.5140 O.2    94  PHE94      -0.2867
    127  CB        24.8960    7.3290   -1.1150 C.3    94  PHE94       0.0534
    128  CG        24.3460    5.9390   -1.0260 C.ar   94  PHE94      -0.0203
    129  CD1       23.7570    5.3380   -2.1300 C.ar   94  PHE94      -0.0042
    130  CD2       24.4510    5.2100    0.1560 C.ar   94  PHE94      -0.0042
    131  CE1       23.2880    4.0320   -2.0630 C.ar   94  PHE94      -0.0003
    132  CE2       23.9790    3.8970    0.2290 C.ar   94  PHE94      -0.0003
    133  CZ        23.4000    3.3120   -0.8840 C.ar   94  PHE94      -0.0000
    134  N         24.5070   -5.1040   -2.6480 N.3   110  MET110     -0.1245
    135  CA        23.7180   -4.7290   -1.4780 C.3   110  MET110      0.1570
    136  C         22.3250   -4.4520   -2.0050 C.2   110  MET110      0.2261
    137  O         21.6270   -3.5800   -1.4850 O.2   110  MET110     -0.2867
    138  CB        24.2300   -3.4270   -0.8610 C.3   110  MET110      0.0387
    139  CG        25.6100   -3.4610   -0.2510 C.3   110  MET110      0.0595
    140  SD        26.2250   -1.7740   -0.0150 S.3   110  MET110     -0.1393
    141  CE        25.0470   -1.1240    1.0920 C.3   110  MET110      0.0692
    142  N         15.8200    0.2870    1.5450 N.3   117  MET117     -0.1245
    143  CA        16.0050    1.7000    1.8360 C.3   117  MET117      0.1570
    144  C         15.2040    2.5520    0.8560 C.2   117  MET117      0.2261
    145  O         14.7740    3.6500    1.2040 O.2   117  MET117     -0.2867
    146  CB        17.4950    2.0800    1.7920 C.3   117  MET117      0.0387
    147  CG        18.3250    1.3430    2.8400 C.3   117  MET117      0.0595
    148  SD        20.0260    1.9040    3.0550 S.3   117  MET117     -0.1393
    149  CE        20.8030    1.1500    1.6150 C.3   117  MET117      0.0692
    150  N         22.8090   -4.4920    6.5930 N.3   203  LEU203     -0.1231
    151  CA        23.9600   -3.7340    6.1370 C.3   203  LEU203      0.1693
    152  C         25.1680   -4.0700    7.0100 C.2   203  LEU203      0.2592
    153  O         26.2930   -4.1790    6.5060 O.2   203  LEU203     -0.2718
    154  CB        23.6510   -2.2350    6.1710 C.3   203  LEU203      0.0284
    155  CG        22.6880   -1.7060    5.1010 C.3   203  LEU203      0.0019
    156  CD1       22.3950   -0.2510    5.3580 C.3   203  LEU203      0.0001
    157  CD2       23.2940   -1.8710    3.7170 C.3   203  LEU203      0.0001
    158  N         24.9360   -4.2330    8.3130 N.am  204  HIS204     -0.1976
    159  CA        26.0060   -4.5870    9.2450 C.3   204  HIS204      0.1656
    160  C         26.5780   -5.9400    8.8490 C.2   204  HIS204      0.2291
    161  O         27.7930   -6.1150    8.8010 O.2   204  HIS204     -0.2864
    162  CB        25.4860   -4.6830   10.6910 C.3   204  HIS204      0.0771
    163  CG        25.4100   -3.3680   11.4070 C.ar  204  HIS204      0.0820
    164  ND1       24.3820   -3.0530   12.2690 N.ar  204  HIS204     -0.2267
    165  CD2       26.2440   -2.2990   11.4120 C.ar  204  HIS204      0.1154
    166  CE1       24.5810   -1.8470   12.7710 C.ar  204  HIS204      0.1986
    167  NE2       25.7050   -1.3680   12.2680 N.ar  204  HIS204     -0.2212
    168  N         26.4520   -7.4800    5.9120 N.3   206  PHE206     -0.1227
    169  CA        27.1440   -7.2910    4.6370 C.3   206  PHE206      0.1736
    170  C         28.5280   -6.6700    4.8380 C.2   206  PHE206      0.2596
    171  O         29.5210   -7.1490    4.2920 O.2   206  PHE206     -0.2718
    172  CB        26.2910   -6.4030    3.7250 C.3   206  PHE206      0.0547
    173  CG        27.0180   -5.8910    2.5090 C.ar  206  PHE206     -0.0202
    174  CD1       27.6880   -4.6660    2.5450 C.ar  206  PHE206     -0.0042
    175  CD2       27.0590   -6.6460    1.3350 C.ar  206  PHE206     -0.0042
    176  CE1       28.3880   -4.2030    1.4370 C.ar  206  PHE206     -0.0003
    177  CE2       27.7560   -6.1930    0.2190 C.ar  206  PHE206     -0.0003
    178  CZ        28.4240   -4.9660    0.2700 C.ar  206  PHE206     -0.0000
    179  N         28.5900   -5.6100    5.6360 N.am  207  THR207     -0.1953
    180  CA        29.8560   -4.9300    5.9000 C.3   207  THR207      0.1897
    181  C         30.8470   -5.8600    6.5940 C.2   207  THR207      0.2313
    182  O         32.0470   -5.8580    6.2850 O.2   207  THR207     -0.2863
    183  CB        29.6320   -3.6840    6.7880 C.3   207  THR207      0.1794
    184  OG1       28.7040   -2.7980    6.1420 O.3   207  THR207     -0.2208
    185  CG2       30.9470   -2.9550    7.0340 C.3   207  THR207      0.0378
    186  N         32.1390   -8.4270    4.0970 N.3   210  LEU210     -0.1245
    187  CA        32.9800   -7.7350    3.1320 C.3   210  LEU210      0.1561
    188  C         34.3610   -7.4210    3.6920 C.2   210  LEU210      0.2260
    189  O         35.3550   -7.5550    2.9880 O.2   210  LEU210     -0.2867
    190  CB        32.2910   -6.4550    2.6570 C.3   210  LEU210      0.0270
    191  CG        33.0650   -5.5560    1.6890 C.3   210  LEU210      0.0019
    192  CD1       33.6130   -6.3700    0.5130 C.3   210  LEU210      0.0001
    193  CD2       32.1400   -4.4620    1.2030 C.3   210  LEU210      0.0001
    194  N         39.1860   -0.4900    2.9100 N.3   221  PHE221     -0.1241
    195  CA        38.5430   -0.0360    4.1320 C.3   221  PHE221      0.1605
    196  C         39.4400    0.9420    4.8580 C.2   221  PHE221      0.2264
    197  O         40.6200    0.6680    5.0810 O.2   221  PHE221     -0.2867
    198  CB        38.2320   -1.2080    5.0710 C.3   221  PHE221      0.0534
    199  CG        36.9660   -1.9440    4.7350 C.ar  221  PHE221     -0.0203
    200  CD1       36.9970   -3.0930    3.9470 C.ar  221  PHE221     -0.0042
    201  CD2       35.7400   -1.4900    5.2160 C.ar  221  PHE221     -0.0042
    202  CE1       35.8240   -3.7860    3.6410 C.ar  221  PHE221     -0.0003
    203  CE2       34.5510   -2.1750    4.9150 C.ar  221  PHE221     -0.0003
    204  CZ        34.5930   -3.3250    4.1270 C.ar  221  PHE221     -0.0000
    205  N         37.5710    2.8900   10.0900 N.3   225  MET225     -0.1245
    206  CA        36.3550    2.1100    9.9050 C.3   225  MET225      0.1570
    207  C         36.5750    0.6090   10.0960 C.2   225  MET225      0.2261
    208  O         35.7160   -0.0750   10.6480 O.2   225  MET225     -0.2867
    209  CB        35.7620    2.3680    8.5210 C.3   225  MET225      0.0387
    210  CG        34.5450    1.5150    8.2290 C.3   225  MET225      0.0595
    211  SD        33.9380    1.7180    6.5560 S.3   225  MET225     -0.1393
    212  CE        32.8470    3.1390    6.7900 C.3   225  MET225      0.0692
    213  N         36.7340   -0.1460   13.8290 N.3   228  ILE228     -0.1231
    214  CA        35.4150   -0.0370   14.4420 C.3   228  ILE228      0.1692
    215  C         34.5210   -1.2160   14.0710 C.2   228  ILE228      0.2591
    216  O         33.7680   -1.7150   14.9050 O.2   228  ILE228     -0.2718
    217  CB        34.7430    1.2810   14.0390 C.3   228  ILE228      0.0266
    218  CG1       35.5870    2.4510   14.5560 C.3   228  ILE228      0.0019
    219  CG2       33.3300    1.3480   14.6070 C.3   228  ILE228      0.0020
    220  CD1       35.0940    3.8120   14.1200 C.3   228  ILE228      0.0001
    221  N         34.6070   -1.6630   12.8200 N.am  229  ILE229     -0.1980
    222  CA        33.8210   -2.8050   12.3610 C.3   229  ILE229      0.1595
    223  C         34.2160   -4.0690   13.1240 C.2   229  ILE229      0.2287
    224  O         33.3630   -4.7920   13.6350 O.2   229  ILE229     -0.2864
    225  CB        34.0470   -3.0980   10.8480 C.3   229  ILE229      0.0276
    226  CG1       33.4660   -1.9750    9.9900 C.3   229  ILE229      0.0022
    227  CG2       33.3880   -4.4240   10.4730 C.3   229  ILE229      0.0022
    228  CD1       33.8460   -2.0650    8.5210 C.3   229  ILE229      0.0001
    229  N         33.1340   -3.4370   17.0180 N.3   232  GLN232     -0.1231
    230  CA        31.7270   -3.1710   17.3030 C.3   232  GLN232      0.1698
    231  C         30.6780   -3.9780   16.5580 C.2   232  GLN232      0.2592
    232  O         29.6840   -4.4130   17.1570 O.2   232  GLN232     -0.2718
    233  CB        31.4540   -1.6810   17.1090 C.3   232  GLN232      0.0381
    234  CG        32.3870   -0.7740   17.9030 C.3   232  GLN232      0.0905
    235  CD        32.1310   -0.8110   19.3970 C.2   232  GLN232      0.2608
    236  OE1       32.0180   -1.8830   19.9880 O.2   232  GLN232     -0.2717
    237  NE2       32.0500    0.3660   20.0200 N.am  232  GLN232     -0.0878
    238  N         30.8780   -4.1840   15.2590 N.am  233  VAL233     -0.1980
    239  CA        29.8950   -4.9240   14.4740 C.3   233  VAL233      0.1595
    240  C         29.6020   -6.3240   15.0030 C.2   233  VAL233      0.2287
    241  O         28.4420   -6.7320   15.0510 O.2   233  VAL233     -0.2864
    242  CB        30.3080   -5.0270   12.9890 C.3   233  VAL233      0.0276
    243  CG1       29.2730   -5.8380   12.2150 C.3   233  VAL233      0.0022
    244  CG2       30.4330   -3.6290   12.3940 C.3   233  VAL233      0.0022
    245  N         27.0690   -6.5760   17.7910 N.3   236  ILE236     -0.1245
    246  CA        25.6990   -6.4140   17.3170 C.3   236  ILE236      0.1561
    247  C         25.1840   -7.7030   16.6800 C.2   236  ILE236      0.2260
    248  O         24.0970   -8.1710   17.0020 O.2   236  ILE236     -0.2867
    249  CB        25.6080   -5.2820   16.2690 C.3   236  ILE236      0.0252
    250  CG1       25.9140   -3.9360   16.9390 C.3   236  ILE236      0.0019
    251  CG2       24.2360   -5.2990   15.5900 C.3   236  ILE236      0.0019
    252  CD1       25.8940   -2.7490   15.9910 C.3   236  ILE236      0.0001
@<TRIPOS>BOND
     1     1     2    1
     2     8     6    1
     3   134   135    1
     4     2     5    1
     5     2     3    1
     6   129   131   ar
     7   129   128   ar
     8   131   133   ar
     9   136   137    2
    10   136   135    1
    11     5     6    1
    12   123   124    1
    13     6     7    1
    14     3     4    2
    15   135   138    1
    16    15    14    1
    17   127   128    1
    18   127   124    1
    19   115   114    2
    20   128   130   ar
    21    14    16    1
    22    14    13    1
    23   133   132   ar
    24     9    10    1
    25   138   139    1
    26   124   125    1
    27   125   126    2
    28   139   140    1
    29   114   113    1
    30   140   141    1
    31    13    10    1
    32   130   132   ar
    33    10    11    1
    34   177   178   ar
    35   177   175   ar
    36   178   176   ar
    37   110   111    1
    38   110   109    1
    39   192   191    1
    40    32    30    1
    41   144   145    2
    42   144   143    1
    43   113   116    1
    44   113   112    1
    45   116   117    1
    46   193   191    1
    47   175   173   ar
    48   176   174   ar
    49    29    30    1
    50    29    26    1
    51   107   106    2
    52    11    17   am
    53    11    12    2
    54   109   108    1
    55   142   143    1
    56    17    18    1
    57   149   148    1
    58   191   190    1
    59   119   118    1
    60   119   120    2
    61    31    30    1
    62   146   143    1
    63   146   147    1
    64   118   117    1
    65    25    26    1
    66    24    22   am
    67    26    27    1
    68   173   174   ar
    69   173   172    1
    70   122   120    1
    71   106   105    1
    72   190   187    1
    73    21    22    1
    74    21    18    1
    75   120   121    1
    76    22    23    2
    77    18    19    1
    78   147   148    1
    79   194   195    1
    80   189   188    2
    81   108   105    1
    82   187   188    1
    83   187   186    1
    84    19    20    2
    85   105   104    1
    86   202   200   ar
    87   202   204   ar
    88   157   155    1
    89   172   169    1
    90    27    33   am
    91    27    28    2
    92    44    43    2
    93   200   199   ar
    94   204   203   ar
    95   195   196    1
    96   195   198    1
    97    33    34    1
    98   171   170    2
    99   169   170    1
   100   169   168    1
   101   199   198    1
   102   199   201   ar
   103   170   179   am
   104   196   197    2
   105   203   201   ar
   106    43    42    1
   107    43    45   am
   108   155   156    1
   109   155   154    1
   110   100    99    2
   111    34    35    1
   112    42    41    1
   113   179   180    1
   114   180   181    1
   115   180   183    1
   116    92    91    2
   117   151   154    1
   118   151   150    1
   119   151   152    1
   120   184   183    1
   121   182   181    2
   122   153   152    2
   123    99    98    1
   124   102   101    1
   125   211   212    1
   126   211   210    1
   127    98   101    1
   128    98    97    1
   129    35    36    2
   130   183   185    1
   131    37    38    1
   132   103   101    1
   133   152   158   am
   134    41    38    1
   135    91    97   am
   136    91    90    1
   137    95    96    1
   138    95    94    1
   139    93    90    1
   140    93    94    1
   141    87    88    1
   142    87    86    1
   143    38    39    1
   144    90    89    1
   145   210   209    1
   146   158   159    1
   147   209   206    1
   148   228   226    1
   149   161   160    2
   150   160   159    1
   151    86    85    1
   152    39    40    2
   153    84    83    2
   154   159   162    1
   155    78    80   ar
   156    78    76   ar
   157   206   205    1
   158   206   207    1
   159    75    76   ar
   160    75    73   ar
   161   226   225    1
   162   207   208    2
   163    80    79   ar
   164    83    82    1
   165    85    82    1
   166    76    74   ar
   167    82    81    1
   168   227   225    1
   169   162   163    1
   170   225   222    1
   171    73    72   ar
   172    70    69    2
   173    79    77   ar
   174   163   165   ar
   175   163   164   ar
   176   165   167   ar
   177    74    72   ar
   178    74    77   ar
   179    81    69   am
   180    69    68    1
   181    72    71    1
   182   243   242    1
   183   167   166   ar
   184   164   166   ar
   185   222   221    1
   186   222   223    1
   187   244   242    1
   188   221   215   am
   189   242   239    1
   190    71    68    1
   191    68    67    1
   192   223   224    2
   193   213   214    1
   194   217   214    1
   195   217   218    1
   196   217   219    1
   197   215   214    1
   198   215   216    2
   199   220   218    1
   200   239   240    1
   201   239   238    1
   202   240   241    2
   203   238   231   am
   204    49    48    2
   205    58    57    2
   206   251   249    1
   207   252   250    1
   208   249   250    1
   209   249   246    1
   210    57    56    1
   211    48    47    1
   212    48    55   am
   213   231   232    2
   214   231   230    1
   215   247   248    2
   216   247   246    1
   217    47    50    1
   218    47    46    1
   219   229   230    1
   220   233   230    1
   221   233   234    1
   222    51    50    1
   223    51    52    1
   224   246   245    1
   225    56    55    1
   226    56    59    1
   227   234   235    1
   228    52    54   am
   229    52    53    2
   230    59    60    1
   231    61    60   ar
   232    61    63   ar
   233   235   236    2
   234   235   237   am
   235    60    62   ar
   236    63    65   ar
   237    62    64   ar
   238    65    64   ar
   239    65    66    1
