@<TRIPOS>MOLECULE
tmp/3b69A00.pdb
 206 200 0 0 0
SMALL
GASTEIGER

@<TRIPOS>ATOM
      1  N         13.7220  -12.5590  -14.7070 N.3    37  ARG37      -0.1231
      2  CA        12.8080  -12.2440  -13.6070 C.3    37  ARG37       0.1694
      3  C         13.6170  -11.7850  -12.3670 C.2    37  ARG37       0.2591
      4  O         14.8430  -11.6160  -12.4360 O.2    37  ARG37      -0.2718
      5  CB        11.9730  -13.4860  -13.2590 C.3    37  ARG37       0.0321
      6  CG        11.0180  -14.0000  -14.3320 C.3    37  ARG37       0.0489
      7  CD         9.8320  -14.7190  -13.6430 C.3    37  ARG37       0.2205
      8  NE         9.1590  -13.8270  -12.6960 N.pl3  37  ARG37      -0.0865
      9  CZ         8.1840  -14.1750  -11.8580 C.cat  37  ARG37       0.5346
     10  NH1        7.6510  -13.2560  -11.0500 N.pl3  37  ARG37       0.1354
     11  NH2        7.7400  -15.4340  -11.8100 N.pl3  37  ARG37       0.1354
     12  N         12.9340  -11.5760  -11.2490 N.am   38  LEU38      -0.1980
     13  CA        13.6000  -11.1980   -9.9860 C.3    38  LEU38       0.1596
     14  C         14.5390  -10.0080  -10.0580 C.2    38  LEU38       0.2287
     15  O         15.7060  -10.1140   -9.6580 O.2    38  LEU38      -0.2864
     16  CB        14.3770  -12.4010   -9.4190 C.3    38  LEU38       0.0297
     17  CG        13.5970  -13.4780   -8.6490 C.3    38  LEU38       0.0022
     18  CD1       13.3600  -12.9870   -7.2140 C.3    38  LEU38       0.0001
     19  CD2       12.2610  -13.8040   -9.3530 C.3    38  LEU38       0.0001
     20  N         16.6950  -17.1050  -16.8050 N.3    55  ARG55      -0.1245
     21  CA        15.9800  -18.3800  -16.9300 C.3    55  ARG55       0.1563
     22  C         16.1570  -18.7780  -18.3890 C.2    55  ARG55       0.2260
     23  O         15.3650  -18.4260  -19.2720 O.2    55  ARG55      -0.2867
     24  CB        14.4980  -18.1930  -16.5640 C.3    55  ARG55       0.0307
     25  CG        14.3340  -17.5500  -15.2070 C.3    55  ARG55       0.0489
     26  CD        13.0230  -17.8440  -14.5650 C.3    55  ARG55       0.2205
     27  NE        12.9920  -17.3040  -13.2020 N.pl3  55  ARG55      -0.0865
     28  CZ        12.0060  -17.5160  -12.3310 C.cat  55  ARG55       0.5346
     29  NH1       10.9650  -18.2610  -12.6730 N.pl3  55  ARG55       0.1354
     30  NH2       12.0610  -16.9710  -11.1180 N.pl3  55  ARG55       0.1354
     31  N          9.7530  -21.7090  -12.5540 N.3    61  ASP61      -0.1225
     32  CA        10.6990  -21.4910  -11.4600 C.3    61  ASP61       0.1805
     33  C         11.7760  -22.5580  -11.3560 C.2    61  ASP61       0.2597
     34  O         12.9500  -22.2660  -11.1630 O.2    61  ASP61      -0.2718
     35  CB         9.9610  -21.4360  -10.1190 C.3    61  ASP61       0.1424
     36  CG         9.1360  -20.1860   -9.9550 C.2    61  ASP61       0.3668
     37  OD1        8.1650  -20.2100   -9.1730 O.co2  61  ASP61      -0.2456
     38  OD2        9.4680  -19.1740  -10.5980 O.co2  61  ASP61      -0.2456
     39  N         11.3630  -23.8140  -11.4770 N.am   62  ASN62      -0.1974
     40  CA        12.2730  -24.9320  -11.3210 C.3    62  ASN62       0.1688
     41  C         12.9170  -25.4220  -12.6200 C.2    62  ASN62       0.2292
     42  O         12.6740  -26.5310  -13.0890 O.2    62  ASN62      -0.2864
     43  CB        11.5180  -26.0440  -10.5840 C.3    62  ASN62       0.1181
     44  CG        10.6200  -25.4880   -9.4820 C.2    62  ASN62       0.2629
     45  OD1        9.3990  -25.6610   -9.5210 O.2    62  ASN62      -0.2716
     46  ND2       11.2160  -24.8100   -8.5120 N.am   62  ASN62      -0.0877
     47  N         18.6650  -19.2190   -7.2800 N.3    97  VAL97      -0.1231
     48  CA        17.3920  -18.5100   -7.2540 C.3    97  VAL97       0.1692
     49  C         17.1560  -17.3240   -6.3100 C.2    97  VAL97       0.2592
     50  O         17.7700  -17.2020   -5.2430 O.2    97  VAL97      -0.2718
     51  CB        16.2690  -19.5350   -6.9460 C.3    97  VAL97       0.0266
     52  CG1       16.3290  -20.6910   -7.9280 C.3    97  VAL97       0.0020
     53  CG2       16.4350  -20.0580   -5.5090 C.3    97  VAL97       0.0020
     54  N         16.1690  -16.5220   -6.6990 N.am   98  ASP98      -0.1974
     55  CA        15.7140  -15.3540   -5.9600 C.3    98  ASP98       0.1709
     56  C         16.8390  -14.5460   -5.3410 C.2    98  ASP98       0.2293
     57  O         16.8850  -14.3560   -4.1270 O.2    98  ASP98      -0.2864
     58  CB        14.6900  -15.7920   -4.8980 C.3    98  ASP98       0.1436
     59  CG        13.3740  -16.3200   -5.5340 C.2    98  ASP98       0.3671
     60  OD1       12.4390  -16.6750   -4.7840 O.co2  98  ASP98      -0.2456
     61  OD2       13.2940  -16.3730   -6.7900 O.co2  98  ASP98      -0.2456
     62  N         19.6120  -25.0490   -6.0240 N.3   115  TYR115     -0.1241
     63  CA        19.0060  -26.3830   -6.1610 C.3   115  TYR115      0.1605
     64  C         19.7100  -27.1200   -7.2650 C.2   115  TYR115      0.2264
     65  O         20.2370  -26.4960   -8.1940 O.2   115  TYR115     -0.2867
     66  CB        17.5040  -26.3160   -6.4880 C.3   115  TYR115      0.0534
     67  CG        16.7150  -25.6700   -5.3780 C.ar  115  TYR115     -0.0201
     68  CD1       16.6040  -24.2760   -5.3070 C.ar  115  TYR115     -0.0009
     69  CD2       16.2160  -26.4370   -4.3110 C.ar  115  TYR115     -0.0009
     70  CE1       16.0400  -23.6530   -4.2040 C.ar  115  TYR115      0.0417
     71  CE2       15.6430  -25.8210   -3.1870 C.ar  115  TYR115      0.0417
     72  CZ        15.5660  -24.4210   -3.1380 C.ar  115  TYR115      0.1957
     73  OH        15.0740  -23.7640   -2.0260 O.3   115  TYR115     -0.2866
     74  N          8.4430  -26.9360   -6.4630 N.3   121  TYR121     -0.1227
     75  CA         8.5720  -25.6060   -5.8320 C.3   121  TYR121      0.1736
     76  C          9.1950  -25.7980   -4.4350 C.2   121  TYR121      0.2595
     77  O          8.8150  -26.7060   -3.7120 O.2   121  TYR121     -0.2718
     78  CB         7.1840  -24.9250   -5.7650 C.3   121  TYR121      0.0548
     79  CG         6.7150  -24.4060   -7.1220 C.ar  121  TYR121     -0.0200
     80  CD1        7.1370  -23.1640   -7.6080 C.ar  121  TYR121     -0.0009
     81  CD2        5.8780  -25.1710   -7.9370 C.ar  121  TYR121     -0.0009
     82  CE1        6.7330  -22.7110   -8.8590 C.ar  121  TYR121      0.0417
     83  CE2        5.4720  -24.7120   -9.1820 C.ar  121  TYR121      0.0417
     84  CZ         5.9040  -23.4840   -9.6300 C.ar  121  TYR121      0.1957
     85  OH         5.4940  -23.0180  -10.8590 O.3   121  TYR121     -0.2866
     86  N         10.1510  -24.9480   -4.0580 N.am  122  TRP122     -0.1962
     87  CA        10.8520  -25.1080   -2.7810 C.3   122  TRP122      0.1771
     88  C          9.9740  -25.3250   -1.5450 C.2   122  TRP122      0.2620
     89  O         10.3370  -26.1060   -0.6670 O.2   122  TRP122     -0.2715
     90  CB        11.8340  -23.9380   -2.5610 C.3   122  TRP122      0.0590
     91  CG        11.2500  -22.6360   -2.0360 C.ar  122  TRP122      0.0006
     92  CD1       10.4720  -21.7110   -2.7170 C.ar  122  TRP122      0.0946
     93  CD2       11.4110  -22.1210   -0.7070 C.ar  122  TRP122      0.0152
     94  NE1       10.1510  -20.6520   -1.8700 N.ar  122  TRP122     -0.2442
     95  CE2       10.7200  -20.8850   -0.6410 C.ar  122  TRP122      0.0810
     96  CE3       12.0760  -22.5930    0.4500 C.ar  122  TRP122      0.0012
     97  CZ2       10.6820  -20.1210    0.5320 C.ar  122  TRP122      0.0191
     98  CZ3       12.0300  -21.8250    1.6150 C.ar  122  TRP122      0.0001
     99  CH2       11.3420  -20.6080    1.6440 C.ar  122  TRP122      0.0015
    100  N          8.8070  -24.6800   -1.4960 N.am  123  THR123     -0.1951
    101  CA         7.9200  -24.7850   -0.3430 C.3   123  THR123      0.1897
    102  C          7.1810  -26.1000   -0.2030 C.2   123  THR123      0.2313
    103  O          6.5450  -26.3600    0.8120 O.2   123  THR123     -0.2863
    104  CB         6.8960  -23.6500   -0.3140 C.3   123  THR123      0.1794
    105  OG1        6.2490  -23.5570   -1.5820 O.3   123  THR123     -0.2208
    106  CG2        7.5810  -22.3300   -0.0090 C.3   123  THR123      0.0378
    107  N         15.5270  -18.8990    2.1590 N.3   178  LEU178     -0.1245
    108  CA        15.9730  -18.1620    0.9980 C.3   178  LEU178      0.1561
    109  C         15.9270  -16.7000    1.3480 C.2   178  LEU178      0.2260
    110  O         15.3240  -16.3320    2.3470 O.2   178  LEU178     -0.2867
    111  CB        15.0110  -18.4120   -0.1710 C.3   178  LEU178      0.0270
    112  CG        14.9240  -19.7960   -0.7910 C.3   178  LEU178      0.0019
    113  CD1       13.8520  -19.7090   -1.9050 C.3   178  LEU178      0.0001
    114  CD2       16.2630  -20.2330   -1.3560 C.3   178  LEU178      0.0001
    115  N         12.9390  -15.8170    4.0850 N.3   197  GLN197     -0.1245
    116  CA        11.7290  -16.6320    4.1970 C.3   197  GLN197      0.1566
    117  C         12.2840  -18.0250    4.4500 C.2   197  GLN197      0.2260
    118  O         13.1920  -18.4850    3.7500 O.2   197  GLN197     -0.2867
    119  CB        10.8810  -16.5720    2.9170 C.3   197  GLN197      0.0367
    120  CG        11.6340  -16.8800    1.6640 C.3   197  GLN197      0.0905
    121  CD        10.8850  -16.4400    0.4300 C.2   197  GLN197      0.2608
    122  OE1       11.4900  -16.0550   -0.5590 O.2   197  GLN197     -0.2717
    123  NE2        9.5700  -16.4870    0.4840 N.am  197  GLN197     -0.0878
    124  N          5.7800  -14.6310    3.4300 N.3   231  SER231     -0.1202
    125  CA         6.8970  -14.9530    2.5390 C.3   231  SER231      0.2020
    126  C          7.5350  -13.6970    1.9250 C.2   231  SER231      0.2618
    127  O          7.0960  -12.5810    2.2060 O.2   231  SER231     -0.2717
    128  CB         6.4190  -15.8910    1.4200 C.3   231  SER231      0.2103
    129  OG         5.4570  -15.2610    0.5830 O.3   231  SER231     -0.2182
    130  N          8.5800  -13.8980    1.1100 N.am  232  GLU232     -0.1979
    131  CA         9.3030  -12.8240    0.4310 C.3   232  GLU232      0.1602
    132  C          9.3090  -11.5090    1.2100 C.2   232  GLU232      0.2287
    133  O          8.8890  -10.4440    0.7220 O.2   232  GLU232     -0.2864
    134  CB         8.7290  -12.6050   -0.9680 C.3   232  GLU232      0.0415
    135  CG         8.9080  -13.7750   -1.8770 C.3   232  GLU232      0.1163
    136  CD         8.6210  -13.4260   -3.3030 C.2   232  GLU232      0.3649
    137  OE1        7.6190  -12.6960   -3.5270 O.co2 232  GLU232     -0.2457
    138  OE2        9.3820  -13.8840   -4.1930 O.co2 232  GLU232     -0.2457
    139  N          4.9390  -10.5170    2.1320 N.3   247  ARG247     -0.1245
    140  CA         3.9970  -11.0060    1.1600 C.3   247  ARG247      0.1563
    141  C          3.1730  -12.0920    1.8770 C.2   247  ARG247      0.2260
    142  O          3.7180  -12.9590    2.5650 O.2   247  ARG247     -0.2867
    143  CB         4.7450  -11.6160   -0.0130 C.3   247  ARG247      0.0307
    144  CG         3.8720  -12.4540   -0.9420 C.3   247  ARG247      0.0489
    145  CD         4.7080  -13.0170   -2.0880 C.3   247  ARG247      0.2205
    146  NE         3.9210  -13.9030   -2.9310 N.pl3 247  ARG247     -0.0865
    147  CZ         4.3370  -14.4300   -4.0790 C.cat 247  ARG247      0.5346
    148  NH1        5.5570  -14.1660   -4.5480 N.pl3 247  ARG247      0.1354
    149  NH2        3.5180  -15.2230   -4.7720 N.pl3 247  ARG247      0.1354
    150  N          0.2230  -14.5890    0.6530 N.3   249  ASP249     -0.1225
    151  CA        -0.6480  -15.0380   -0.4360 C.3   249  ASP249      0.1805
    152  C         -2.0650  -15.1560    0.0070 C.2   249  ASP249      0.2597
    153  O         -2.3220  -15.7570    1.0470 O.2   249  ASP249     -0.2718
    154  CB        -0.1660  -16.3750   -0.9960 C.3   249  ASP249      0.1424
    155  CG         1.0460  -16.2150   -1.8700 C.2   249  ASP249      0.3668
    156  OD1        1.7830  -17.1940   -2.0520 O.co2 249  ASP249     -0.2456
    157  OD2        1.2580  -15.1000   -2.3870 O.co2 249  ASP249     -0.2456
    158  N         -2.9700  -14.5510   -0.7610 N.am  250  TYR250     -0.1976
    159  CA        -4.3960  -14.6010   -0.4860 C.3   250  TYR250      0.1639
    160  C         -4.8240  -13.8600    0.7530 C.2   250  TYR250      0.2290
    161  O         -5.9050  -14.1300    1.2680 O.2   250  TYR250     -0.2864
    162  CB        -4.8660  -16.0500   -0.3520 C.3   250  TYR250      0.0560
    163  CG        -4.4620  -16.9290   -1.5140 C.ar  250  TYR250     -0.0198
    164  CD1       -3.2960  -17.7050   -1.4540 C.ar  250  TYR250     -0.0009
    165  CD2       -5.2150  -16.9430   -2.7010 C.ar  250  TYR250     -0.0009
    166  CE1       -2.8700  -18.4800   -2.5530 C.ar  250  TYR250      0.0417
    167  CE2       -4.8020  -17.7100   -3.8040 C.ar  250  TYR250      0.0417
    168  CZ        -3.6190  -18.4750   -3.7220 C.ar  250  TYR250      0.1957
    169  OH        -3.1740  -19.2040   -4.8130 O.3   250  TYR250     -0.2866
    170  N         -1.8000  -15.1120  -10.7040 N.3   314  TRP314     -0.1241
    171  CA        -0.4590  -14.5180  -10.6790 C.3   314  TRP314      0.1605
    172  C         -0.1880  -13.4790  -11.7340 C.2   314  TRP314      0.2264
    173  O          0.9090  -12.9350  -11.7760 O.2   314  TRP314     -0.2867
    174  CB         0.6240  -15.6000  -10.7940 C.3   314  TRP314      0.0550
    175  CG         0.8220  -16.4200   -9.5500 C.ar  314  TRP314      0.0003
    176  CD1        1.5500  -16.0820   -8.4300 C.ar  314  TRP314      0.0946
    177  CD2        0.2280  -17.6710   -9.2730 C.ar  314  TRP314      0.0152
    178  NE1        1.4370  -17.0500   -7.4750 N.ar  314  TRP314     -0.2442
    179  CE2        0.6230  -18.0430   -7.9660 C.ar  314  TRP314      0.0810
    180  CE3       -0.6130  -18.5290  -10.0040 C.ar  314  TRP314      0.0012
    181  CZ2        0.2040  -19.2320   -7.3760 C.ar  314  TRP314      0.0191
    182  CZ3       -1.0210  -19.7040   -9.4240 C.ar  314  TRP314      0.0001
    183  CH2       -0.6110  -20.0450   -8.1160 C.ar  314  TRP314      0.0015
    184  N         -1.0230  -10.4520  -12.0350 N.3   316  ARG316     -0.1245
    185  CA        -0.5620   -9.2580  -11.3450 C.3   316  ARG316      0.1563
    186  C         -0.2130   -8.0820  -12.2210 C.2   316  ARG316      0.2260
    187  O          0.9290   -7.6650  -12.3680 O.2   316  ARG316     -0.2867
    188  CB         0.6040   -9.6330  -10.4170 C.3   316  ARG316      0.0307
    189  CG         0.1500  -10.5750   -9.3210 C.3   316  ARG316      0.0489
    190  CD         1.2900  -11.2830   -8.6350 C.3   316  ARG316      0.2205
    191  NE         2.0710  -12.1270   -9.5290 N.pl3 316  ARG316     -0.0865
    192  CZ         3.0520  -12.9430   -9.1370 C.cat 316  ARG316      0.5346
    193  NH1        3.3790  -13.0360   -7.8490 N.pl3 316  ARG316      0.1354
    194  NH2        3.7170  -13.6610  -10.0410 N.pl3 316  ARG316      0.1354
    195  N          7.0070   -8.5620  -10.0330 N.3   344  TYR344     -0.1241
    196  CA         8.1920   -8.1980   -9.2580 C.3   344  TYR344      0.1605
    197  C          8.8020   -6.8990   -9.8240 C.2   344  TYR344      0.2264
    198  O          8.7410   -6.6430  -11.0330 O.2   344  TYR344     -0.2867
    199  CB         9.2050   -9.3590   -9.2840 C.3   344  TYR344      0.0534
    200  CG         8.7970  -10.6420   -8.5240 C.ar  344  TYR344     -0.0201
    201  CD1        7.4560  -11.0310   -8.3800 C.ar  344  TYR344     -0.0009
    202  CD2        9.7840  -11.4960   -8.0050 C.ar  344  TYR344     -0.0009
    203  CE1        7.1160  -12.2400   -7.7410 C.ar  344  TYR344      0.0417
    204  CE2        9.4540  -12.7000   -7.3640 C.ar  344  TYR344      0.0417
    205  CZ         8.1220  -13.0850   -7.2300 C.ar  344  TYR344      0.1957
    206  OH         7.8440  -14.3250   -6.6110 O.3   344  TYR344     -0.2866
@<TRIPOS>BOND
     1    23    22    2
     2    22    21    1
     3    21    20    1
     4    21    24    1
     5    24    25    1
     6    25    26    1
     7     1     2    1
     8    26    27    1
     9     6     7    1
    10     6     5    1
    11     7     8    1
    12     2     5    1
    13     2     3    1
    14    27    28    2
    15    42    41    2
    16     8     9    2
    17    29    28    1
    18    41    40    1
    19    31    32    1
    20     4     3    2
    21   187   186    2
    22     3    12   am
    23    28    30    1
    24   186   185    1
    25   184   185    1
    26     9    11    1
    27     9    10    1
    28   173   172    2
    29   172   171    1
    30    39    33   am
    31    39    40    1
    32    32    33    1
    33    32    35    1
    34    33    34    2
    35   185   188    1
    36    40    43    1
    37    12    13    1
    38   198   197    2
    39    85    84    1
    40   174   171    1
    41   174   175    1
    42   170   171    1
    43    38    36   ar
    44    43    44    1
    45   188   189    1
    46    35    36    1
    47    14    13    1
    48    14    15    2
    49   194   192    1
    50   195   196    1
    51   180   182   ar
    52   180   177   ar
    53    13    16    1
    54    36    37   ar
    55   197   196    1
    56    84    83   ar
    57    84    82   ar
    58   175   177   ar
    59   175   176   ar
    60   191   192    2
    61   191   190    1
    62    45    44    2
    63    44    46   am
    64   182   183   ar
    65    16    17    1
    66    19    17    1
    67   189   190    1
    68   199   196    1
    69   199   200    1
    70   177   179   ar
    71    83    81   ar
    72   192   193    1
    73    82    80   ar
    74    17    18    1
    75   200   201   ar
    76   200   202   ar
    77   176   178   ar
    78   201   203   ar
    79    65    64    2
    80   183   181   ar
    81   202   204   ar
    82   179   178   ar
    83   179   181   ar
    84    81    79   ar
    85    52    51    1
    86   203   205   ar
    87    80    79   ar
    88   204   205   ar
    89    47    48    1
    90    64    63    1
    91    48    51    1
    92    48    49    1
    93   205   206    1
    94    79    78    1
    95    51    53    1
    96    61    59   ar
    97    54    49   am
    98    54    55    1
    99    66    63    1
   100    66    67    1
   101    74    75    1
   102    49    50    2
   103    63    62    1
   104    55    56    1
   105    55    58    1
   106    75    78    1
   107    75    76    1
   108    59    58    1
   109    59    60   ar
   110    67    68   ar
   111    67    69   ar
   112    56    57    2
   113    68    70   ar
   114   169   168    1
   115   149   147    1
   116   148   147    1
   117    76    86   am
   118    76    77    2
   119    69    71   ar
   120    70    72   ar
   121   138   136   ar
   122   147   146    2
   123    86    87    1
   124   167   168   ar
   125   167   165   ar
   126   168   166   ar
   127   137   136   ar
   128   136   135    1
   129    71    72   ar
   130    72    73    1
   131   146   145    1
   132    87    90    1
   133    87    88    1
   134    92    91   ar
   135    92    94   ar
   136   165   163   ar
   137    90    91    1
   138   166   164   ar
   139   157   155   ar
   140   145   144    1
   141   156   155   ar
   142    91    93   ar
   143   113   112    1
   144   135   134    1
   145    94    95   ar
   146   155   154    1
   147   105   104    1
   148    88   100   am
   149    88    89    2
   150   163   164   ar
   151   163   162    1
   152   100   101    1
   153   114   112    1
   154   154   151    1
   155   134   131    1
   156   144   143    1
   157   112   111    1
   158   158   159    1
   159   158   152   am
   160    93    95   ar
   161    93    96   ar
   162    95    97   ar
   163   122   121    2
   164   159   162    1
   165   159   160    1
   166   151   152    1
   167   151   150    1
   168   101   104    1
   169   101   102    1
   170   104   106    1
   171   102   103    2
   172   111   108    1
   173   143   140    1
   174   152   153    2
   175   121   123   am
   176   121   120    1
   177   131   130    1
   178   131   132    1
   179    96    98   ar
   180    97    99   ar
   181   129   128    1
   182   133   132    2
   183   160   161    2
   184   108   109    1
   185   108   107    1
   186   130   126   am
   187   140   141    1
   188   140   139    1
   189   109   110    2
   190   128   125    1
   191    98    99   ar
   192   120   119    1
   193   141   142    2
   194   126   127    2
   195   126   125    1
   196   125   124    1
   197   119   116    1
   198   118   117    2
   199   115   116    1
   200   116   117    1
