@<TRIPOS>MOLECULE
tmp/3b69A01.pdb
 117 112 0 0 0
SMALL
GASTEIGER

@<TRIPOS>ATOM
      1  N         13.7220  -12.5590  -14.7070 N.3    37  ARG37      -0.1245
      2  CA        12.8080  -12.2440  -13.6070 C.3    37  ARG37       0.1563
      3  C         13.6170  -11.7850  -12.3670 C.2    37  ARG37       0.2260
      4  O         14.8430  -11.6160  -12.4360 O.2    37  ARG37      -0.2867
      5  CB        11.9730  -13.4860  -13.2590 C.3    37  ARG37       0.0307
      6  CG        11.0180  -14.0000  -14.3320 C.3    37  ARG37       0.0489
      7  CD         9.8320  -14.7190  -13.6430 C.3    37  ARG37       0.2205
      8  NE         9.1590  -13.8270  -12.6960 N.pl3  37  ARG37      -0.0865
      9  CZ         8.1840  -14.1750  -11.8580 C.cat  37  ARG37       0.5346
     10  NH1        7.6510  -13.2560  -11.0500 N.pl3  37  ARG37       0.1354
     11  NH2        7.7400  -15.4340  -11.8100 N.pl3  37  ARG37       0.1354
     12  N         10.3280  -19.9850  -18.1740 N.3    59  SER59      -0.1217
     13  CA        10.0980  -19.0610  -17.0580 C.3    59  SER59       0.1889
     14  C          9.7070  -19.8810  -15.8060 C.2    59  SER59       0.2288
     15  O          9.5770  -19.3270  -14.7190 O.2    59  SER59      -0.2866
     16  CB         8.9720  -18.0520  -17.3810 C.3    59  SER59       0.2089
     17  OG         7.7460  -18.7270  -17.6120 O.3    59  SER59      -0.2183
     18  N          9.7530  -21.7090  -12.5540 N.3    61  ASP61      -0.1239
     19  CA        10.6990  -21.4910  -11.4600 C.3    61  ASP61       0.1674
     20  C         11.7760  -22.5580  -11.3560 C.2    61  ASP61       0.2266
     21  O         12.9500  -22.2660  -11.1630 O.2    61  ASP61      -0.2867
     22  CB         9.9610  -21.4360  -10.1190 C.3    61  ASP61       0.1410
     23  CG         9.1360  -20.1860   -9.9550 C.2    61  ASP61       0.3668
     24  OD1        8.1650  -20.2100   -9.1730 O.co2  61  ASP61      -0.2456
     25  OD2        9.4680  -19.1740  -10.5980 O.co2  61  ASP61      -0.2456
     26  N          8.4430  -26.9360   -6.4630 N.3   121  TYR121     -0.1241
     27  CA         8.5720  -25.6060   -5.8320 C.3   121  TYR121      0.1605
     28  C          9.1950  -25.7980   -4.4350 C.2   121  TYR121      0.2264
     29  O          8.8150  -26.7060   -3.7120 O.2   121  TYR121     -0.2867
     30  CB         7.1840  -24.9250   -5.7650 C.3   121  TYR121      0.0534
     31  CG         6.7150  -24.4060   -7.1220 C.ar  121  TYR121     -0.0201
     32  CD1        7.1370  -23.1640   -7.6080 C.ar  121  TYR121     -0.0009
     33  CD2        5.8780  -25.1710   -7.9370 C.ar  121  TYR121     -0.0009
     34  CE1        6.7330  -22.7110   -8.8590 C.ar  121  TYR121      0.0417
     35  CE2        5.4720  -24.7120   -9.1820 C.ar  121  TYR121      0.0417
     36  CZ         5.9040  -23.4840   -9.6300 C.ar  121  TYR121      0.1957
     37  OH         5.4940  -23.0180  -10.8590 O.3   121  TYR121     -0.2866
     38  N          4.9390  -10.5170    2.1320 N.3   247  ARG247     -0.1245
     39  CA         3.9970  -11.0060    1.1600 C.3   247  ARG247      0.1563
     40  C          3.1730  -12.0920    1.8770 C.2   247  ARG247      0.2260
     41  O          3.7180  -12.9590    2.5650 O.2   247  ARG247     -0.2867
     42  CB         4.7450  -11.6160   -0.0130 C.3   247  ARG247      0.0307
     43  CG         3.8720  -12.4540   -0.9420 C.3   247  ARG247      0.0489
     44  CD         4.7080  -13.0170   -2.0880 C.3   247  ARG247      0.2205
     45  NE         3.9210  -13.9030   -2.9310 N.pl3 247  ARG247     -0.0865
     46  CZ         4.3370  -14.4300   -4.0790 C.cat 247  ARG247      0.5346
     47  NH1        5.5570  -14.1660   -4.5480 N.pl3 247  ARG247      0.1354
     48  NH2        3.5180  -15.2230   -4.7720 N.pl3 247  ARG247      0.1354
     49  N         -5.1080  -14.3110   -9.8840 N.3   313  ARG313     -0.1231
     50  CA        -4.1010  -15.3840   -9.8160 C.3   313  ARG313      0.1694
     51  C         -2.7040  -14.7320   -9.8050 C.2   313  ARG313      0.2592
     52  O         -2.4560  -13.8470   -8.9760 O.2   313  ARG313     -0.2718
     53  CB        -4.2870  -16.3830  -10.9720 C.3   313  ARG313      0.0321
     54  CG        -5.6850  -17.0070  -10.9980 C.3   313  ARG313      0.0489
     55  CD        -5.8060  -18.1820  -11.9590 C.3   313  ARG313      0.2205
     56  NE        -4.8090  -19.2090  -11.6480 N.pl3 313  ARG313     -0.0865
     57  CZ        -5.0330  -20.5240  -11.6670 C.cat 313  ARG313      0.5346
     58  NH1       -6.2370  -21.0020  -11.9860 N.pl3 313  ARG313      0.1354
     59  NH2       -4.0480  -21.3660  -11.3670 N.pl3 313  ARG313      0.1354
     60  N         -1.8000  -15.1120  -10.7040 N.am  314  TRP314     -0.1976
     61  CA        -0.4590  -14.5180  -10.6790 C.3   314  TRP314      0.1640
     62  C         -0.1880  -13.4790  -11.7340 C.2   314  TRP314      0.2290
     63  O          0.9090  -12.9350  -11.7760 O.2   314  TRP314     -0.2864
     64  CB         0.6240  -15.6000  -10.7940 C.3   314  TRP314      0.0576
     65  CG         0.8220  -16.4200   -9.5500 C.ar  314  TRP314      0.0006
     66  CD1        1.5500  -16.0820   -8.4300 C.ar  314  TRP314      0.0946
     67  CD2        0.2280  -17.6710   -9.2730 C.ar  314  TRP314      0.0152
     68  NE1        1.4370  -17.0500   -7.4750 N.ar  314  TRP314     -0.2442
     69  CE2        0.6230  -18.0430   -7.9660 C.ar  314  TRP314      0.0810
     70  CE3       -0.6130  -18.5290  -10.0040 C.ar  314  TRP314      0.0012
     71  CZ2        0.2040  -19.2320   -7.3760 C.ar  314  TRP314      0.0191
     72  CZ3       -1.0210  -19.7040   -9.4240 C.ar  314  TRP314      0.0001
     73  CH2       -0.6110  -20.0450   -8.1160 C.ar  314  TRP314      0.0015
     74  N         -1.0230  -10.4520  -12.0350 N.3   316  ARG316     -0.1245
     75  CA        -0.5620   -9.2580  -11.3450 C.3   316  ARG316      0.1563
     76  C         -0.2130   -8.0820  -12.2210 C.2   316  ARG316      0.2260
     77  O          0.9290   -7.6650  -12.3680 O.2   316  ARG316     -0.2867
     78  CB         0.6040   -9.6330  -10.4170 C.3   316  ARG316      0.0307
     79  CG         0.1500  -10.5750   -9.3210 C.3   316  ARG316      0.0489
     80  CD         1.2900  -11.2830   -8.6350 C.3   316  ARG316      0.2205
     81  NE         2.0710  -12.1270   -9.5290 N.pl3 316  ARG316     -0.0865
     82  CZ         3.0520  -12.9430   -9.1370 C.cat 316  ARG316      0.5346
     83  NH1        3.3790  -13.0360   -7.8490 N.pl3 316  ARG316      0.1354
     84  NH2        3.7170  -13.6610  -10.0410 N.pl3 316  ARG316      0.1354
     85  N          7.0070   -8.5620  -10.0330 N.3   344  TYR344     -0.1241
     86  CA         8.1920   -8.1980   -9.2580 C.3   344  TYR344      0.1605
     87  C          8.8020   -6.8990   -9.8240 C.2   344  TYR344      0.2264
     88  O          8.7410   -6.6430  -11.0330 O.2   344  TYR344     -0.2867
     89  CB         9.2050   -9.3590   -9.2840 C.3   344  TYR344      0.0534
     90  CG         8.7970  -10.6420   -8.5240 C.ar  344  TYR344     -0.0201
     91  CD1        7.4560  -11.0310   -8.3800 C.ar  344  TYR344     -0.0009
     92  CD2        9.7840  -11.4960   -8.0050 C.ar  344  TYR344     -0.0009
     93  CE1        7.1160  -12.2400   -7.7410 C.ar  344  TYR344      0.0417
     94  CE2        9.4540  -12.7000   -7.3640 C.ar  344  TYR344      0.0417
     95  CZ         8.1220  -13.0850   -7.2300 C.ar  344  TYR344      0.1957
     96  OH         7.8440  -14.3250   -6.6110 O.3   344  TYR344     -0.2866
     97  N          3.6300  -15.8860  -20.0320 N.3   364  GLU364     -0.1245
     98  CA         4.6920  -16.4690  -19.2170 C.3   364  GLU364      0.1567
     99  C          6.0900  -16.4060  -19.8290 C.2   364  GLU364      0.2260
    100  O          6.8940  -17.3270  -19.6710 O.2   364  GLU364     -0.2867
    101  CB         4.3500  -17.9160  -18.8350 C.3   364  GLU364      0.0388
    102  CG         3.0720  -18.0730  -18.0040 C.3   364  GLU364      0.1160
    103  CD         2.9860  -17.0970  -16.8200 C.2   364  GLU364      0.3649
    104  OE1        3.9120  -17.1170  -15.9790 O.co2 364  GLU364     -0.2457
    105  OE2        1.9970  -16.3100  -16.7390 O.co2 364  GLU364     -0.2457
    106  N          8.9230  -13.5700  -19.6430 N.3   366  TYR366     -0.1241
    107  CA         9.2550  -12.3490  -18.9460 C.3   366  TYR366      0.1605
    108  C         10.4780  -11.5660  -19.4340 C.2   366  TYR366      0.2264
    109  O         11.4770  -12.1260  -19.8930 O.2   366  TYR366     -0.2867
    110  CB         9.4270  -12.6580  -17.4530 C.3   366  TYR366      0.0534
    111  CG         8.2240  -13.3230  -16.7660 C.ar  366  TYR366     -0.0201
    112  CD1        7.7920  -14.6030  -17.1410 C.ar  366  TYR366     -0.0009
    113  CD2        7.5840  -12.7100  -15.6880 C.ar  366  TYR366     -0.0009
    114  CE1        6.7780  -15.2510  -16.4630 C.ar  366  TYR366      0.0417
    115  CE2        6.5620  -13.3610  -15.0080 C.ar  366  TYR366      0.0417
    116  CZ         6.1630  -14.6280  -15.3880 C.ar  366  TYR366      0.1957
    117  OH         5.1750  -15.2810  -14.6620 O.3   366  TYR366     -0.2866
@<TRIPOS>BOND
     1    97    98    1
     2   109   108    2
     3    99   100    2
     4    99    98    1
     5   106   107    1
     6   108   107    1
     7    98   101    1
     8   107   110    1
     9   101   102    1
    10    12    13    1
    11   102   103    1
    12    17    16    1
    13   110   111    1
    14    16    13    1
    15   112   111   ar
    16   112   114   ar
    17    13    14    1
    18   103   105   ar
    19   103   104   ar
    20   111   113   ar
    21   114   116   ar
    22    14    15    2
    23   113   115   ar
    24   116   115   ar
    25   116   117    1
    26     1     2    1
    27     6     7    1
    28     6     5    1
    29     7     8    1
    30     2     5    1
    31     2     3    1
    32     8     9    2
    33    18    19    1
    34     4     3    2
    35    77    76    2
    36    76    75    1
    37    74    75    1
    38    58    57    1
    39    55    56    1
    40    55    54    1
    41     9    11    1
    42     9    10    1
    43    63    62    2
    44    62    61    1
    45    57    56    2
    46    57    59    1
    47    19    20    1
    48    19    22    1
    49    20    21    2
    50    75    78    1
    51    88    87    2
    52    54    53    1
    53    53    50    1
    54    37    36    1
    55    64    61    1
    56    64    65    1
    57    60    61    1
    58    60    51   am
    59    25    23   ar
    60    78    79    1
    61    22    23    1
    62    84    82    1
    63    85    86    1
    64    70    72   ar
    65    70    67   ar
    66    23    24   ar
    67    49    50    1
    68    87    86    1
    69    50    51    1
    70    51    52    2
    71    36    35   ar
    72    36    34   ar
    73    65    67   ar
    74    65    66   ar
    75    81    82    2
    76    81    80    1
    77    72    73   ar
    78    79    80    1
    79    89    86    1
    80    89    90    1
    81    67    69   ar
    82    35    33   ar
    83    82    83    1
    84    34    32   ar
    85    90    91   ar
    86    90    92   ar
    87    66    68   ar
    88    91    93   ar
    89    73    71   ar
    90    92    94   ar
    91    69    68   ar
    92    69    71   ar
    93    33    31   ar
    94    93    95   ar
    95    32    31   ar
    96    94    95   ar
    97    95    96    1
    98    31    30    1
    99    26    27    1
   100    27    30    1
   101    27    28    1
   102    48    46    1
   103    47    46    1
   104    28    29    2
   105    46    45    2
   106    45    44    1
   107    44    43    1
   108    43    42    1
   109    42    39    1
   110    39    40    1
   111    39    38    1
   112    40    41    2
