@<TRIPOS>MOLECULE
tmp/3b6aC00.pdb
 184 172 0 0 0
SMALL
GASTEIGER

@<TRIPOS>ATOM
      1  N          9.6960    5.5850   14.7350 N.3    56  PHE56      -0.1241
      2  CA         8.2980    5.5820   14.2990 C.3    56  PHE56       0.1605
      3  C          7.3030    6.0150   15.3740 C.2    56  PHE56       0.2264
      4  O          6.4420    6.8910   15.1310 O.2    56  PHE56      -0.2867
      5  CB         7.8970    4.2040   13.7660 C.3    56  PHE56       0.0534
      6  CG         6.6710    4.2410   12.9290 C.ar   56  PHE56      -0.0203
      7  CD1        6.7530    4.6020   11.5850 C.ar   56  PHE56      -0.0042
      8  CD2        5.4220    3.9620   13.4860 C.ar   56  PHE56      -0.0042
      9  CE1        5.6050    4.6700   10.7970 C.ar   56  PHE56      -0.0003
     10  CE2        4.2570    4.0340   12.7100 C.ar   56  PHE56      -0.0003
     11  CZ         4.3490    4.3990   11.3650 C.ar   56  PHE56      -0.0000
     12  N          4.6300    9.8680   16.0430 N.3    60  LEU60      -0.1231
     13  CA         3.1730    9.6370   16.1470 C.3    60  LEU60       0.1693
     14  C          2.4250   10.6110   17.0540 C.2    60  LEU60       0.2592
     15  O          1.2230   10.8090   16.9050 O.2    60  LEU60      -0.2718
     16  CB         2.8470    8.1780   16.5280 C.3    60  LEU60       0.0284
     17  CG         2.8740    7.2140   15.3280 C.3    60  LEU60       0.0019
     18  CD1        2.1990    5.8870   15.5890 C.3    60  LEU60       0.0001
     19  CD2        2.2400    7.8840   14.1180 C.3    60  LEU60       0.0001
     20  N          3.1410   11.2390   17.9780 N.am   61  THR61      -0.1953
     21  CA         2.5390   12.1980   18.8960 C.3    61  THR61       0.1897
     22  C          1.9090   13.3430   18.1110 C.2    61  THR61       0.2313
     23  O          1.1600   14.1500   18.6490 O.2    61  THR61      -0.2863
     24  CB         3.5890   12.7940   19.8780 C.3    61  THR61       0.1794
     25  OG1        4.6780   13.3780   19.1460 O.3    61  THR61      -0.2208
     26  CG2        4.1320   11.7200   20.8280 C.3    61  THR61       0.0378
     27  N         -0.0590   13.2010   15.3260 N.3    63  VAL63      -0.1245
     28  CA        -1.4040   12.9310   14.8090 C.3    63  VAL63       0.1561
     29  C         -2.4090   13.2370   15.9120 C.2    63  VAL63       0.2260
     30  O         -2.0100   13.4730   17.0450 O.2    63  VAL63      -0.2867
     31  CB        -1.5160   11.4760   14.3260 C.3    63  VAL63       0.0252
     32  CG1       -2.8110   11.2480   13.5540 C.3    63  VAL63       0.0019
     33  CG2       -0.3400   11.1640   13.4390 C.3    63  VAL63       0.0019
     34  N         -6.3840   11.9800   17.2960 N.3    65  VAL65      -0.1245
     35  CA        -7.6630   11.2860   17.2040 C.3    65  VAL65       0.1561
     36  C         -8.6590   11.9800   18.1160 C.2    65  VAL65       0.2260
     37  O         -8.6210   11.7740   19.3350 O.2    65  VAL65      -0.2867
     38  CB        -7.5440    9.8220   17.6000 C.3    65  VAL65       0.0252
     39  CG1       -8.8490    9.1190   17.3620 C.3    65  VAL65       0.0019
     40  CG2       -6.4510    9.1660   16.8040 C.3    65  VAL65       0.0019
     41  N         -9.1000   13.0120   11.3860 N.3    80  MET80      -0.1245
     42  CA        -8.1910   11.9830   11.8390 C.3    80  MET80       0.1570
     43  C         -7.2020   11.4800   10.7610 C.2    80  MET80       0.2261
     44  O         -5.9980   11.3610   11.0020 O.2    80  MET80      -0.2867
     45  CB        -9.0390   10.8320   12.3340 C.3    80  MET80       0.0387
     46  CG        -8.3190    9.8820   13.1940 C.3    80  MET80       0.0595
     47  SD        -8.9960    8.2940   12.8000 S.3    80  MET80      -0.1393
     48  CE        -7.9460    7.8340   11.4150 C.3    80  MET80       0.0692
     49  N         -3.0760   12.3290   10.0210 N.3    84  LEU84      -0.1245
     50  CA        -2.0650   11.3000    9.8280 C.3    84  LEU84       0.1561
     51  C         -1.2390   11.5520    8.5650 C.2    84  LEU84       0.2260
     52  O         -0.0260   11.4310    8.5850 O.2    84  LEU84      -0.2867
     53  CB        -2.7630    9.9640    9.7340 C.3    84  LEU84       0.0270
     54  CG        -2.1770    8.6360   10.1710 C.3    84  LEU84       0.0019
     55  CD1       -3.0920    7.5590    9.6140 C.3    84  LEU84       0.0001
     56  CD2       -0.7180    8.3840    9.7680 C.3    84  LEU84       0.0001
     57  N          6.9190    2.1450    7.3920 N.3    98  ALA98      -0.1231
     58  CA         5.6080    1.6700    7.8540 C.3    98  ALA98       0.1694
     59  C          5.1450    0.3540    7.2230 C.2    98  ALA98       0.2592
     60  O          4.5090   -0.4530    7.8910 O.2    98  ALA98      -0.2718
     61  CB         4.5410    2.7740    7.6910 C.3    98  ALA98       0.0304
     62  N          5.4820    0.1470    5.9510 N.am   99  ILE99      -0.1966
     63  CA         5.0440   -1.0400    5.1830 C.3    99  ILE99       0.1727
     64  C          5.3950   -2.3870    5.7920 C.2    99  ILE99       0.2616
     65  O          4.5700   -3.2820    5.7500 O.2    99  ILE99      -0.2715
     66  CB         5.5090   -1.0600    3.6760 C.3    99  ILE99       0.0290
     67  CG1        6.9800   -1.4820    3.5330 C.3    99  ILE99       0.0022
     68  CG2        5.1970    0.2530    2.9510 C.3    99  ILE99       0.0023
     69  CD1        7.1800   -2.9430    3.1400 C.3    99  ILE99       0.0001
     70  N          6.6010   -2.5370    6.3350 N.am  100  ASP100     -0.1957
     71  CA         6.9970   -3.7950    6.9930 C.3   100  ASP100      0.1840
     72  C          7.1810   -3.6860    8.5260 C.2   100  ASP100      0.2621
     73  O          8.0770   -4.3410    9.0840 O.2   100  ASP100     -0.2715
     74  CB         8.2880   -4.3480    6.3590 C.3   100  ASP100      0.1450
     75  CG         9.5550   -3.6040    6.8430 C.2   100  ASP100      0.3671
     76  OD1       10.3380   -4.2070    7.6060 O.co2 100  ASP100     -0.2456
     77  OD2        9.7460   -2.4140    6.4950 O.co2 100  ASP100     -0.2456
     78  N          6.3630   -2.8660    9.2030 N.am  101  ARG101     -0.1977
     79  CA         6.5070   -2.6880   10.6630 C.3   101  ARG101      0.1597
     80  C          5.1840   -2.6520   11.4460 C.2   101  ARG101      0.2287
     81  O          4.1570   -2.1910   10.9590 O.2   101  ARG101     -0.2864
     82  CB         7.4710   -1.5160   11.0340 C.3   101  ARG101      0.0334
     83  CG         8.8750   -1.6290   10.3480 C.3   101  ARG101      0.0492
     84  CD        10.0740   -1.3640   11.2330 C.3   101  ARG101      0.2205
     85  NE        10.1810   -2.3500   12.3050 N.pl3 101  ARG101     -0.0865
     86  CZ        10.6330   -3.5980   12.1770 C.cat 101  ARG101      0.5346
     87  NH1       11.0250   -4.0510   10.9970 N.pl3 101  ARG101      0.1354
     88  NH2       10.6890   -4.4050   13.2390 N.pl3 101  ARG101      0.1354
     89  N          2.3170   -1.7240   14.1390 N.3   103  PRO103     -0.2116
     90  CA         1.8300   -0.4120   14.6210 C.3   103  PRO103      0.1372
     91  C          1.8080   -0.3830   16.1670 C.2   103  PRO103      0.2244
     92  O          0.7960    0.0010   16.7810 O.2   103  PRO103     -0.2868
     93  CB         0.4070   -0.2920   14.0150 C.3   103  PRO103      0.0268
     94  CG         0.0660   -1.6520   13.4420 C.3   103  PRO103      0.0207
     95  CD         1.1930   -2.6170   13.7700 C.3   103  PRO103      0.0892
     96  N          2.7350    5.3820   22.0290 N.3   107  ASN107     -0.1225
     97  CA         1.9050    6.1410   21.0940 C.3   107  ASN107      0.1785
     98  C          1.1060    5.2390   20.1720 C.2   107  ASN107      0.2597
     99  O         -0.0060    5.5840   19.7780 O.2   107  ASN107     -0.2718
    100  CB         2.7520    7.0460   20.2090 C.3   107  ASN107      0.1169
    101  CG         3.4550    8.1460   20.9800 C.2   107  ASN107      0.2627
    102  OD1        2.8330    8.9100   21.7210 O.2   107  ASN107     -0.2716
    103  ND2        4.7650    8.2540   20.7780 N.am  107  ASN107     -0.0877
    104  N          1.6900    4.0960   19.8230 N.am  108  GLY108     -0.1957
    105  CA         1.0500    3.1110   18.9700 C.3   108  GLY108      0.1869
    106  C         -0.3030    2.6320   19.4710 C.2   108  GLY108      0.2309
    107  O         -1.2930    2.7100   18.7310 O.2   108  GLY108     -0.2863
    108  N         -1.9050    3.8060   22.4730 N.3   110  VAL110     -0.1231
    109  CA        -2.7650    4.9040   22.8900 C.3   110  VAL110      0.1692
    110  C         -3.5170    5.3910   21.6730 C.2   110  VAL110      0.2593
    111  O         -4.5680    6.0190   21.8040 O.2   110  VAL110     -0.2718
    112  CB        -2.0220    6.0840   23.5700 C.3   110  VAL110      0.0266
    113  CG1       -2.7870    7.4350   23.3940 C.3   110  VAL110      0.0020
    114  CG2       -1.8290    5.7930   25.0350 C.3   110  VAL110      0.0020
    115  N         -2.9820    5.0820   20.5000 N.am  111  GLY111     -0.1942
    116  CA        -3.5730    5.5210   19.2450 C.3   111  GLY111      0.2014
    117  C         -4.6850    4.6530   18.6720 C.2   111  GLY111      0.2638
    118  O         -5.7200    5.1800   18.2310 O.2   111  GLY111     -0.2714
    119  N         -4.4550    3.3370   18.6390 N.am  112  MET112     -0.1976
    120  CA        -5.4980    2.3640   18.2650 C.3   112  MET112      0.1605
    121  C         -6.7260    2.5530   19.1480 C.2   112  MET112      0.2287
    122  O         -7.8530    2.6040   18.6450 O.2   112  MET112     -0.2864
    123  CB        -5.0080    0.9050   18.3490 C.3   112  MET112      0.0413
    124  CG        -4.4640    0.3070   17.0430 C.3   112  MET112      0.0598
    125  SD        -4.5440   -1.5090   17.0820 S.3   112  MET112     -0.1393
    126  CE        -3.2510   -1.9830   15.9330 C.3   112  MET112      0.0692
    127  N         -8.0900    5.0560   20.7390 N.3   114  ARG114     -0.1231
    128  CA        -8.8850    6.2050   20.3480 C.3   114  ARG114      0.1694
    129  C         -9.4210    6.0560   18.9270 C.2   114  ARG114      0.2593
    130  O        -10.4850    6.5780   18.6350 O.2   114  ARG114     -0.2718
    131  CB        -8.0770    7.4910   20.4960 C.3   114  ARG114      0.0321
    132  CG        -7.4770    7.6790   21.8680 C.3   114  ARG114      0.0489
    133  CD        -6.4640    8.8450   21.9220 C.3   114  ARG114      0.2205
    134  NE        -7.0310   10.1960   21.8610 N.pl3 114  ARG114     -0.0865
    135  CZ        -8.0380   10.6460   22.6050 C.cat 114  ARG114      0.5346
    136  NH1       -8.6590    9.8530   23.4510 N.pl3 114  ARG114      0.1354
    137  NH2       -8.4550   11.8970   22.4830 N.pl3 114  ARG114      0.1354
    138  N         -8.7090    5.3380   18.0520 N.am  115  THR115     -0.1939
    139  CA        -9.2650    4.9640   16.7300 C.3   115  THR115      0.2028
    140  C        -10.4800    4.0200   16.8340 C.2   115  THR115      0.2642
    141  O        -11.5340    4.2700   16.2540 O.2   115  THR115     -0.2714
    142  CB        -8.1760    4.4720   15.7320 C.3   115  THR115      0.1808
    143  OG1       -7.5940    5.6020   15.0510 O.3   115  THR115     -0.2208
    144  CG2       -8.7580    3.5590   14.6880 C.3   115  THR115      0.0379
    145  N        -10.3530    2.9630   17.6110 N.am  116  MET116     -0.1976
    146  CA       -11.5020    2.0950   17.8510 C.3   116  MET116      0.1605
    147  C        -12.7020    2.8100   18.5060 C.2   116  MET116      0.2287
    148  O        -13.8460    2.5830   18.1220 O.2   116  MET116     -0.2864
    149  CB       -11.0820    0.8550   18.6450 C.3   116  MET116      0.0413
    150  CG       -10.1090   -0.0410   17.8980 C.3   116  MET116      0.0598
    151  SD       -10.7170   -0.4400   16.2370 S.3   116  MET116     -0.1393
    152  CE        -9.8400    0.7070   15.2190 C.3   116  MET116      0.0692
    153  N        -10.4090    0.4200   10.5640 N.3   133  GLY133     -0.1210
    154  CA        -9.1840    1.1310   10.9080 C.3   133  GLY133      0.1956
    155  C         -7.9780    0.6390   10.1240 C.2   133  GLY133      0.2611
    156  O         -7.2550    1.4520    9.5550 O.2   133  GLY133     -0.2717
    157  N         -7.7620   -0.6800   10.0910 N.am  134  ASP134     -0.1973
    158  CA        -6.7270   -1.3050    9.2580 C.3   134  ASP134      0.1709
    159  C         -6.7380   -0.6760    7.8630 C.2   134  ASP134      0.2293
    160  O         -5.7670   -0.0290    7.4460 O.2   134  ASP134     -0.2864
    161  CB        -7.0010   -2.8160    9.1620 C.3   134  ASP134      0.1436
    162  CG        -5.8560   -3.5990    8.5520 C.2   134  ASP134      0.3671
    163  OD1       -5.3140   -3.2220    7.4800 O.co2 134  ASP134     -0.2456
    164  OD2       -5.5160   -4.6290    9.1510 O.co2 134  ASP134     -0.2456
    165  N         -5.8130    3.1580    7.6030 N.3   137  SER137     -0.1202
    166  CA        -4.3900    3.3840    7.8220 C.3   137  SER137      0.2020
    167  C         -3.5750    2.7930    6.6740 C.2   137  SER137      0.2619
    168  O         -2.5440    3.3790    6.2580 O.2   137  SER137     -0.2717
    169  CB        -3.9500    2.7410    9.1260 C.3   137  SER137      0.2103
    170  OG        -3.7470    1.3500    8.9200 O.3   137  SER137     -0.2182
    171  N         -4.0340    1.6270    6.1930 N.am  138  THR138     -0.1952
    172  CA        -3.5170    1.0400    4.9550 C.3   138  THR138      0.1897
    173  C         -3.7260    2.0710    3.8280 C.2   138  THR138      0.2313
    174  O         -2.7600    2.5660    3.2450 O.2   138  THR138     -0.2863
    175  CB        -4.1650   -0.3360    4.6110 C.3   138  THR138      0.1794
    176  OG1       -4.2580   -1.1620    5.7800 O.3   138  THR138     -0.2208
    177  CG2       -3.3360   -1.0540    3.6400 C.3   138  THR138      0.0378
    178  N         -1.3890    5.3210    4.1960 N.3   141  THR141     -0.1218
    179  CA         0.0190    5.0030    3.9320 C.3   141  THR141      0.1862
    180  C          0.2280    5.0110    2.4190 C.2   141  THR141      0.2287
    181  O          0.8800    5.9210    1.8820 O.2   141  THR141     -0.2866
    182  CB         0.3890    3.5950    4.4050 C.3   141  THR141      0.1770
    183  OG1       -0.7440    2.7600    4.1880 O.3   141  THR141     -0.2211
    184  CG2        0.7730    3.5570    5.8870 C.3   141  THR141      0.0375
@<TRIPOS>BOND
     1   181   180    2
     2   180   179    1
     3    68    66    1
     4    69    67    1
     5   174   173    2
     6    67    66    1
     7   177   175    1
     8    66    63    1
     9   173   172    1
    10   179   178    1
    11   179   182    1
    12   183   182    1
    13   182   184    1
    14   175   172    1
    15   175   176    1
    16   172   171    1
    17    63    64    1
    18    63    62    1
    19    65    64    2
    20    64    70   am
    21    62    59   am
    22   171   167   am
    23   168   167    2
    24    70    71    1
    25    74    75    1
    26    74    71    1
    27    77    75   ar
    28   167   166    1
    29    75    76   ar
    30    71    72    1
    31    59    58    1
    32    59    60    2
    33    57    58    1
    34   160   159    2
    35   163   162   ar
    36   165   166    1
    37    61    58    1
    38   166   169    1
    39   159   158    1
    40    72    73    2
    41    72    78   am
    42   162   164   ar
    43   162   161    1
    44    51    52    2
    45    51    50    1
    46   170   169    1
    47   161   158    1
    48    78    79    1
    49   158   157    1
    50   156   155    2
    51    55    54    1
    52    53    50    1
    53    53    54    1
    54    56    54    1
    55    50    49    1
    56   157   155   am
    57   155   154    1
    58    83    82    1
    59    83    84    1
    60   153   154    1
    61    79    82    1
    62    79    80    1
    63    43    44    2
    64    43    42    1
    65     9    11   ar
    66     9     7   ar
    67    81    80    2
    68    87    86    1
    69    84    85    1
    70    11    10   ar
    71    41    42    1
    72    48    47    1
    73     7     6   ar
    74    42    45    1
    75    86    85    2
    76    86    88    1
    77    45    46    1
    78    10     8   ar
    79    47    46    1
    80     6     8   ar
    81     6     5    1
    82    33    31    1
    83    94    95    1
    84    94    93    1
    85    32    31    1
    86     5     2    1
    87    95    89    1
    88    93    90    1
    89    19    17    1
    90    89    90    1
    91     2     1    1
    92     2     3    1
    93    31    28    1
    94    90    91    1
    95   144   142    1
    96    28    27    1
    97    28    29    1
    98   143   142    1
    99     4     3    2
   100   152   151    1
   101    17    18    1
   102    17    16    1
   103   142   139    1
   104    29    30    2
   105   126   125    1
   106    12    13    1
   107    13    16    1
   108    13    14    1
   109    91    92    2
   110   151   150    1
   111   141   140    2
   112   139   140    1
   113   139   138    1
   114    40    38    1
   115   140   145   am
   116    15    14    2
   117   124   125    1
   118   124   123    1
   119    14    20   am
   120    35    34    1
   121    35    38    1
   122    35    36    1
   123    39    38    1
   124   145   146    1
   125   146   147    1
   126   146   149    1
   127   150   149    1
   128    20    21    1
   129   138   129   am
   130    22    23    2
   131    22    21    1
   132    36    37    2
   133   148   147    2
   134   118   117    2
   135   120   123    1
   136   120   119    1
   137   120   121    1
   138   130   129    2
   139   119   117   am
   140   122   121    2
   141   117   116    1
   142   107   106    2
   143    21    24    1
   144   129   128    1
   145   105   106    1
   146   105   104    1
   147    25    24    1
   148   116   115    1
   149    99    98    2
   150   104    98   am
   151    24    26    1
   152    98    97    1
   153   100   101    1
   154   100    97    1
   155   128   131    1
   156   128   127    1
   157   131   132    1
   158   115   110   am
   159   103   101   am
   160   101   102    2
   161    97    96    1
   162   110   111    2
   163   110   109    1
   164   134   133    1
   165   134   135    2
   166   132   133    1
   167   108   109    1
   168   137   135    1
   169   135   136    1
   170   109   112    1
   171   113   112    1
   172   112   114    1
