@<TRIPOS>MOLECULE
tmp/3b6cA01.pdb
 126 117 0 0 0
SMALL
GASTEIGER

@<TRIPOS>ATOM
      1  N        -20.8090  -11.7520   -6.6630 N.3    60  LEU60      -0.1231
      2  CA       -22.2340  -11.5250   -6.8130 C.3    60  LEU60       0.1693
      3  C        -22.8790  -12.5650   -7.7240 C.2    60  LEU60       0.2592
      4  O        -24.0840  -12.7530   -7.6780 O.2    60  LEU60      -0.2718
      5  CB       -22.5090  -10.1110   -7.3240 C.3    60  LEU60       0.0284
      6  CG       -22.2460   -8.9930   -6.3140 C.3    60  LEU60       0.0019
      7  CD1      -22.4230   -7.6510   -6.9900 C.3    60  LEU60       0.0001
      8  CD2      -23.1990   -9.1200   -5.1370 C.3    60  LEU60       0.0001
      9  N        -22.1010  -13.2520   -8.5520 N.am   61  THR61      -0.1953
     10  CA       -22.7150  -14.2720   -9.4050 C.3    61  THR61       0.1897
     11  C        -23.3900  -15.3460   -8.5570 C.2    61  THR61       0.2313
     12  O        -24.2840  -16.0320   -9.0280 O.2    61  THR61      -0.2863
     13  CB       -21.6930  -14.9970  -10.3430 C.3    61  THR61       0.1794
     14  OG1      -20.5460  -15.4010   -9.5920 O.3    61  THR61      -0.2208
     15  CG2      -21.2600  -14.0890  -11.4970 C.3    61  THR61       0.0378
     16  N        -25.3300  -14.8690   -6.1010 N.3    63  VAL63      -0.1231
     17  CA       -26.6450  -14.4860   -5.6410 C.3    63  VAL63       0.1692
     18  C        -27.7330  -14.7330   -6.6860 C.2    63  VAL63       0.2592
     19  O        -27.5660  -14.4650   -7.8660 O.2    63  VAL63      -0.2718
     20  CB       -26.6620  -13.0350   -5.1600 C.3    63  VAL63       0.0266
     21  CG1      -27.8670  -12.8350   -4.2730 C.3    63  VAL63       0.0020
     22  CG2      -25.4040  -12.7260   -4.3740 C.3    63  VAL63       0.0020
     23  N        -28.8530  -15.2750   -6.2360 N.am   64  GLU64      -0.1966
     24  CA       -29.9460  -15.5920   -7.1350 C.3    64  GLU64       0.1733
     25  C        -31.1600  -14.7030   -7.0030 C.2    64  GLU64       0.2616
     26  O        -31.7950  -14.6950   -5.9530 O.2    64  GLU64      -0.2715
     27  CB       -30.3790  -17.0470   -6.9230 C.3    64  GLU64       0.0429
     28  CG       -29.6690  -18.0280   -7.8260 C.3    64  GLU64       0.1163
     29  CD       -30.1870  -17.9590   -9.2440 C.2    64  GLU64       0.3649
     30  OE1      -29.3730  -18.0410  -10.1820 O.co2  64  GLU64      -0.2457
     31  OE2      -31.4160  -17.8290   -9.4190 O.co2  64  GLU64      -0.2457
     32  N        -31.4800  -13.9610   -8.0580 N.am   65  VAL65      -0.1977
     33  CA       -32.6870  -13.1440   -8.0830 C.3    65  VAL65       0.1596
     34  C        -33.7450  -13.7500   -8.9990 C.2    65  VAL65       0.2287
     35  O        -33.7000  -13.5750  -10.2160 O.2    65  VAL65      -0.2864
     36  CB       -32.3860  -11.7060   -8.5440 C.3    65  VAL65       0.0276
     37  CG1      -33.6070  -10.8200   -8.3520 C.3    65  VAL65       0.0022
     38  CG2      -31.1900  -11.1460   -7.7890 C.3    65  VAL65       0.0022
     39  N        -34.2170  -13.8120   -2.4140 N.3    80  MET80      -0.1230
     40  CA       -33.0990  -13.0730   -2.9400 C.3    80  MET80       0.1702
     41  C        -32.1780  -12.6070   -1.8120 C.2    80  MET80       0.2592
     42  O        -30.9580  -12.6810   -1.9220 O.2    80  MET80      -0.2718
     43  CB       -33.6410  -11.8870   -3.7300 C.3    80  MET80       0.0401
     44  CG       -32.7440  -10.7010   -3.8050 C.3    80  MET80       0.0596
     45  SD       -33.5130   -9.2890   -4.6270 S.3    80  MET80      -0.1393
     46  CE       -34.4900   -8.6440   -3.2850 C.3    80  MET80       0.0692
     47  N        -32.7730  -12.1320   -0.7240 N.am   81  CYS81      -0.1970
     48  CA       -32.0090  -11.6570    0.4090 C.3    81  CYS81       0.1712
     49  C        -31.2700  -12.7800    1.1090 C.2    81  CYS81       0.2296
     50  O        -30.1300  -12.6020    1.5250 O.2    81  CYS81      -0.2864
     51  CB       -32.9260  -10.9490    1.4020 C.3    81  CYS81       0.0983
     52  SG       -33.6160   -9.4250    0.7140 S.3    81  CYS81      -0.0798
     53  N        -28.2620  -13.4890   -1.0110 N.3    84  LEU84      -0.1245
     54  CA       -27.2620  -12.4520   -0.7860 C.3    84  LEU84       0.1561
     55  C        -26.5610  -12.6440    0.5550 C.2    84  LEU84       0.2260
     56  O        -25.3440  -12.4910    0.6570 O.2    84  LEU84      -0.2867
     57  CB       -27.9050  -11.0650   -0.8480 C.3    84  LEU84       0.0270
     58  CG       -26.9750   -9.8750   -0.6060 C.3    84  LEU84       0.0019
     59  CD1      -25.8620   -9.8430   -1.6430 C.3    84  LEU84       0.0001
     60  CD2      -27.7570   -8.5700   -0.6140 C.3    84  LEU84       0.0001
     61  N        -21.8970   -1.7950   -6.1590 N.3   103  PRO103     -0.2116
     62  CA       -22.0350   -3.0670   -6.8760 C.3   103  PRO103      0.1372
     63  C        -21.7890   -2.9150   -8.3740 C.2   103  PRO103      0.2244
     64  O        -21.1100   -3.7500   -8.9720 O.2   103  PRO103     -0.2868
     65  CB       -23.4920   -3.4550   -6.6170 C.3   103  PRO103      0.0268
     66  CG       -24.1870   -2.1630   -6.3750 C.3   103  PRO103      0.0207
     67  CD       -23.1910   -1.2930   -5.6660 C.3   103  PRO103      0.0892
     68  N        -22.1060   -8.4290  -13.3070 N.3   107  ASN107     -0.1225
     69  CA       -23.2050   -9.0040  -12.5420 C.3   107  ASN107      0.1785
     70  C        -23.8230   -7.9980  -11.5770 C.2   107  ASN107      0.2597
     71  O        -25.0220   -8.0440  -11.3000 O.2   107  ASN107     -0.2718
     72  CB       -22.7360  -10.2450  -11.7790 C.3   107  ASN107      0.1169
     73  CG       -21.5870  -10.9530  -12.4700 C.2   107  ASN107      0.2627
     74  OD1      -21.7550  -11.5350  -13.5410 O.2   107  ASN107     -0.2716
     75  ND2      -20.4090  -10.9070  -11.8570 N.am  107  ASN107     -0.0877
     76  N        -22.9970   -7.0900  -11.0670 N.am  108  GLY108     -0.1957
     77  CA       -23.4580   -6.0770  -10.1370 C.3   108  GLY108      0.1869
     78  C        -24.6750   -5.3300  -10.6470 C.2   108  GLY108      0.2309
     79  O        -25.6920   -5.2380   -9.9600 O.2   108  GLY108     -0.2863
     80  N        -26.4380   -6.1470  -13.4110 N.3   110  VAL110     -0.1231
     81  CA       -27.4240   -7.1270  -13.8520 C.3   110  VAL110      0.1692
     82  C        -28.3480   -7.5340  -12.7090 C.2   110  VAL110      0.2593
     83  O        -29.5480   -7.7200  -12.9040 O.2   110  VAL110     -0.2718
     84  CB       -26.7500   -8.3870  -14.4270 C.3   110  VAL110      0.0266
     85  CG1      -27.7700   -9.5000  -14.6050 C.3   110  VAL110      0.0020
     86  CG2      -26.0650   -8.0660  -15.7470 C.3   110  VAL110      0.0020
     87  N        -27.7790   -7.6690  -11.5150 N.am  111  GLY111     -0.1942
     88  CA       -28.5360   -8.1000  -10.3550 C.3   111  GLY111      0.2014
     89  C        -29.3720   -6.9830   -9.7610 C.2   111  GLY111      0.2638
     90  O        -30.3660   -7.2340   -9.0790 O.2   111  GLY111     -0.2714
     91  N        -28.9670   -5.7450  -10.0210 N.am  112  MET112     -0.1976
     92  CA       -29.7800   -4.5840   -9.6780 C.3   112  MET112      0.1605
     93  C        -30.9700   -4.4460  -10.6220 C.2   112  MET112      0.2287
     94  O        -32.1040   -4.2590  -10.1830 O.2   112  MET112     -0.2864
     95  CB       -28.9350   -3.3100   -9.7070 C.3   112  MET112      0.0413
     96  CG       -29.4600   -2.1950   -8.8160 C.3   112  MET112      0.0598
     97  SD       -28.6130   -0.6280   -9.0910 S.3   112  MET112     -0.1393
     98  CE       -26.9180   -1.1820   -9.2520 C.3   112  MET112      0.0692
     99  N        -32.3100   -6.8670  -12.1340 N.3   114  ARG114     -0.1231
    100  CA       -33.1880   -7.9830  -11.8030 C.3   114  ARG114      0.1694
    101  C        -33.9170   -7.7400  -10.4860 C.2   114  ARG114      0.2592
    102  O        -35.0280   -8.2280  -10.2820 O.2   114  ARG114     -0.2718
    103  CB       -32.3910   -9.2870  -11.7310 C.3   114  ARG114      0.0321
    104  CG       -31.8190   -9.7400  -13.0640 C.3   114  ARG114      0.0489
    105  CD       -31.1600  -11.1050  -12.9470 C.3   114  ARG114      0.2205
    106  NE       -32.1300  -12.1600  -12.6700 N.pl3 114  ARG114     -0.0865
    107  CZ       -32.9440  -12.6830  -13.5800 C.cat 114  ARG114      0.5346
    108  NH1      -32.9070  -12.2510  -14.8330 N.pl3 114  ARG114      0.1354
    109  NH2      -33.7960  -13.6400  -13.2390 N.pl3 114  ARG114      0.1354
    110  N        -33.2840   -6.9830   -9.5960 N.am  115  THR115     -0.1953
    111  CA       -33.8670   -6.6820   -8.2930 C.3   115  THR115      0.1897
    112  C        -34.9920   -5.6600   -8.4320 C.2   115  THR115      0.2313
    113  O        -36.0770   -5.8440   -7.8740 O.2   115  THR115     -0.2863
    114  CB       -32.8050   -6.1530   -7.3170 C.3   115  THR115      0.1794
    115  OG1      -31.8660   -7.1920   -7.0250 O.3   115  THR115     -0.2208
    116  CG2      -33.4630   -5.6870   -6.0220 C.3   115  THR115      0.0378
    117  N        -34.9860   -1.3340   -2.5190 N.3   133  GLY133     -0.1225
    118  CA       -33.8600   -2.1500   -2.9510 C.3   133  GLY133      0.1811
    119  C        -32.6140   -1.7640   -2.1810 C.2   133  GLY133      0.2280
    120  O        -31.8230   -2.6030   -1.7570 O.2   133  GLY133     -0.2866
    121  N        -30.7050   -4.2300    0.7550 N.3   137  SER137     -0.1217
    122  CA       -29.3320   -4.6790    0.6040 C.3   137  SER137      0.1889
    123  C        -28.3880   -4.0960    1.6330 C.2   137  SER137      0.2288
    124  O        -27.3630   -4.6930    1.9560 O.2   137  SER137     -0.2866
    125  CB       -28.8660   -4.4310   -0.8200 C.3   137  SER137      0.2089
    126  OG       -28.5930   -3.0730   -1.0020 O.3   137  SER137     -0.2183
@<TRIPOS>BOND
     1    86    84    1
     2   108   107    1
     3    85    84    1
     4    84    81    1
     5    81    80    1
     6    81    82    1
     7   107   109    1
     8   107   106    2
     9    74    73    2
    10    68    69    1
    11   104   105    1
    12   104   103    1
    13   105   106    1
    14    83    82    2
    15    82    87   am
    16    69    72    1
    17    69    70    1
    18    73    75   am
    19    73    72    1
    20    99   100    1
    21   100   103    1
    22   100   101    1
    23    70    71    2
    24    70    76   am
    25    87    88    1
    26    15    13    1
    27    76    77    1
    28    78    77    1
    29    78    79    2
    30    93    94    2
    31    93    92    1
    32   101   102    2
    33   101   110   am
    34    88    89    1
    35    13    14    1
    36    13    10    1
    37    35    34    2
    38    30    29   ar
    39    91    89   am
    40    91    92    1
    41    89    90    2
    42    95    92    1
    43    95    96    1
    44   110   111    1
    45    31    29   ar
    46    10    11    1
    47    10     9    1
    48    98    97    1
    49    29    28    1
    50    97    96    1
    51    12    11    2
    52    34    33    1
    53    64    63    2
    54     9     3   am
    55    36    37    1
    56    36    33    1
    57    36    38    1
    58   112   111    1
    59   112   113    2
    60    63    62    1
    61   111   114    1
    62    33    32    1
    63    32    25   am
    64    19    18    2
    65    28    27    1
    66     3     4    2
    67     3     2    1
    68     5     2    1
    69     5     6    1
    70   114   115    1
    71   114   116    1
    72    24    25    1
    73    24    27    1
    74    24    23    1
    75    25    26    2
    76     7     6    1
    77    62    65    1
    78    62    61    1
    79     2     1    1
    80    18    23   am
    81    18    17    1
    82    65    66    1
    83    66    67    1
    84     6     8    1
    85    61    67    1
    86    16    17    1
    87    17    20    1
    88    20    22    1
    89    20    21    1
    90    45    44    1
    91    45    46    1
    92    44    43    1
    93    43    40    1
    94   118   117    1
    95   118   119    1
    96    40    39    1
    97    40    41    1
    98   119   120    2
    99    42    41    2
   100    41    47   am
   101    59    58    1
   102    53    54    1
   103   126   125    1
   104    57    54    1
   105    57    58    1
   106   125   122    1
   107    54    55    1
   108    47    48    1
   109    60    58    1
   110    48    49    1
   111    48    51    1
   112    55    56    2
   113   122   121    1
   114   122   123    1
   115    52    51    1
   116    49    50    2
   117   123   124    2
