@<TRIPOS>MOLECULE
tmp/3b6cA00.pdb
 113 104 0 0 0
SMALL
GASTEIGER

@<TRIPOS>ATOM
      1  N        -15.3940   -8.1380   -5.4190 N.3    56  PHE56      -0.1241
      2  CA       -16.7640   -8.0100   -4.9820 C.3    56  PHE56       0.1605
      3  C        -17.7430   -8.3790   -6.0940 C.2    56  PHE56       0.2264
      4  O        -18.6740   -9.1700   -5.8790 O.2    56  PHE56      -0.2867
      5  CB       -17.0310   -6.5760   -4.5240 C.3    56  PHE56       0.0534
      6  CG       -18.4470   -6.3390   -4.0960 C.ar   56  PHE56      -0.0203
      7  CD1      -19.0020   -7.0800   -3.0580 C.ar   56  PHE56      -0.0042
      8  CD2      -19.2270   -5.3870   -4.7330 C.ar   56  PHE56      -0.0042
      9  CE1      -20.3110   -6.8790   -2.6640 C.ar   56  PHE56      -0.0003
     10  CE2      -20.5420   -5.1770   -4.3450 C.ar   56  PHE56      -0.0003
     11  CZ       -21.0880   -5.9220   -3.3110 C.ar   56  PHE56      -0.0000
     12  N        -20.8090  -11.7520   -6.6630 N.3    60  LEU60      -0.1245
     13  CA       -22.2340  -11.5250   -6.8130 C.3    60  LEU60       0.1561
     14  C        -22.8790  -12.5650   -7.7240 C.2    60  LEU60       0.2260
     15  O        -24.0840  -12.7530   -7.6780 O.2    60  LEU60      -0.2867
     16  CB       -22.5090  -10.1110   -7.3240 C.3    60  LEU60       0.0270
     17  CG       -22.2460   -8.9930   -6.3140 C.3    60  LEU60       0.0019
     18  CD1      -22.4230   -7.6510   -6.9900 C.3    60  LEU60       0.0001
     19  CD2      -23.1990   -9.1200   -5.1370 C.3    60  LEU60       0.0001
     20  N        -28.2620  -13.4890   -1.0110 N.3    84  LEU84      -0.1245
     21  CA       -27.2620  -12.4520   -0.7860 C.3    84  LEU84       0.1561
     22  C        -26.5610  -12.6440    0.5550 C.2    84  LEU84       0.2260
     23  O        -25.3440  -12.4910    0.6570 O.2    84  LEU84      -0.2867
     24  CB       -27.9050  -11.0650   -0.8480 C.3    84  LEU84       0.0270
     25  CG       -26.9750   -9.8750   -0.6060 C.3    84  LEU84       0.0019
     26  CD1      -25.8620   -9.8430   -1.6430 C.3    84  LEU84       0.0001
     27  CD2      -27.7570   -8.5700   -0.6140 C.3    84  LEU84       0.0001
     28  N        -22.3260  -13.5430    1.5130 N.3    88  PHE88      -0.1241
     29  CA       -21.5300  -12.8820    2.5400 C.3    88  PHE88       0.1605
     30  C        -20.9450  -13.8940    3.5200 C.2    88  PHE88       0.2264
     31  O        -19.7680  -13.8230    3.8720 O.2    88  PHE88      -0.2867
     32  CB       -22.3730  -11.8500    3.2910 C.3    88  PHE88       0.0534
     33  CG       -22.5920  -10.5750    2.5270 C.ar   88  PHE88      -0.0203
     34  CD1      -23.8630  -10.0420    2.3920 C.ar   88  PHE88      -0.0042
     35  CD2      -21.5270   -9.9100    1.9430 C.ar   88  PHE88      -0.0042
     36  CE1      -24.0670   -8.8690    1.6900 C.ar   88  PHE88      -0.0003
     37  CE2      -21.7250   -8.7370    1.2400 C.ar   88  PHE88      -0.0003
     38  CZ       -22.9970   -8.2160    1.1130 C.ar   88  PHE88      -0.0000
     39  N        -17.9000   -4.4790    0.8500 N.3    98  ALA98      -0.1231
     40  CA       -19.0990   -3.9790    0.1880 C.3    98  ALA98       0.1694
     41  C        -19.5590   -2.6610    0.8010 C.2    98  ALA98       0.2591
     42  O        -20.4190   -1.9750    0.2480 O.2    98  ALA98      -0.2718
     43  CB       -20.2120   -5.0140    0.2540 C.3    98  ALA98       0.0304
     44  N        -18.9800   -2.3120    1.9450 N.am   99  ILE99      -0.1980
     45  CA       -19.5440   -1.2800    2.8060 C.3    99  ILE99       0.1595
     46  C        -19.2420    0.1140    2.2660 C.2    99  ILE99       0.2287
     47  O        -19.7830    1.1090    2.7500 O.2    99  ILE99      -0.2864
     48  CB       -19.0080   -1.3890    4.2450 C.3    99  ILE99       0.0276
     49  CG1      -19.9130   -2.2940    5.0840 C.3    99  ILE99       0.0022
     50  CG2      -18.8930   -0.0110    4.8770 C.3    99  ILE99       0.0022
     51  CD1      -21.3900   -2.0590    4.8570 C.3    99  ILE99       0.0001
     52  N        -18.7340    0.6380   -1.4670 N.3   101  ARG101     -0.1245
     53  CA       -18.5200    0.1400   -2.8210 C.3   101  ARG101      0.1563
     54  C        -19.8340    0.0470   -3.5890 C.2   101  ARG101      0.2260
     55  O        -20.8530   -0.3790   -3.0440 O.2   101  ARG101     -0.2867
     56  CB       -17.8320   -1.2260   -2.7870 C.3   101  ARG101      0.0307
     57  CG       -16.3280   -1.1700   -2.9980 C.3   101  ARG101      0.0489
     58  CD       -15.7270   -2.5650   -3.0610 C.3   101  ARG101      0.2205
     59  NE       -14.5190   -2.6770   -2.2480 N.pl3 101  ARG101     -0.0865
     60  CZ       -13.6290   -1.7020   -2.0930 C.cat 101  ARG101      0.5346
     61  NH1      -13.8090   -0.5350   -2.6970 N.pl3 101  ARG101      0.1354
     62  NH2      -12.5590   -1.8930   -1.3350 N.pl3 101  ARG101      0.1354
     63  N        -21.8970   -1.7950   -6.1590 N.3   103  PRO103     -0.2116
     64  CA       -22.0350   -3.0670   -6.8760 C.3   103  PRO103      0.1372
     65  C        -21.7890   -2.9150   -8.3740 C.2   103  PRO103      0.2244
     66  O        -21.1100   -3.7500   -8.9720 O.2   103  PRO103     -0.2868
     67  CB       -23.4920   -3.4550   -6.6170 C.3   103  PRO103      0.0268
     68  CG       -24.1870   -2.1630   -6.3750 C.3   103  PRO103      0.0207
     69  CD       -23.1910   -1.2930   -5.6660 C.3   103  PRO103      0.0892
     70  N        -22.9970   -7.0900  -11.0670 N.3   108  GLY108     -0.1225
     71  CA       -23.4580   -6.0770  -10.1370 C.3   108  GLY108      0.1811
     72  C        -24.6750   -5.3300  -10.6470 C.2   108  GLY108      0.2280
     73  O        -25.6920   -5.2380   -9.9600 O.2   108  GLY108     -0.2866
     74  N        -28.9670   -5.7450  -10.0210 N.3   112  MET112     -0.1245
     75  CA       -29.7800   -4.5840   -9.6780 C.3   112  MET112      0.1570
     76  C        -30.9700   -4.4460  -10.6220 C.2   112  MET112      0.2261
     77  O        -32.1040   -4.2590  -10.1830 O.2   112  MET112     -0.2867
     78  CB       -28.9350   -3.3100   -9.7070 C.3   112  MET112      0.0387
     79  CG       -29.4600   -2.1950   -8.8160 C.3   112  MET112      0.0595
     80  SD       -28.6130   -0.6280   -9.0910 S.3   112  MET112     -0.1393
     81  CE       -26.9180   -1.1820   -9.2520 C.3   112  MET112      0.0692
     82  N        -34.9860   -1.3340   -2.5190 N.3   133  GLY133     -0.1210
     83  CA       -33.8600   -2.1500   -2.9510 C.3   133  GLY133      0.1956
     84  C        -32.6140   -1.7640   -2.1810 C.2   133  GLY133      0.2611
     85  O        -31.8230   -2.6030   -1.7570 O.2   133  GLY133     -0.2717
     86  N        -32.4350   -0.4660   -2.0030 N.am  134  ASP134     -0.1973
     87  CA       -31.2930    0.0520   -1.2650 C.3   134  ASP134      0.1709
     88  C        -31.3970   -0.3700    0.2080 C.2   134  ASP134      0.2293
     89  O        -30.4370   -0.8990    0.7720 O.2   134  ASP134     -0.2864
     90  CB       -31.2490    1.5810   -1.3540 C.3   134  ASP134      0.1436
     91  CG       -30.0130    2.1620   -0.7000 C.2   134  ASP134      0.3671
     92  OD1      -29.4700    1.5150    0.2270 O.co2 134  ASP134     -0.2456
     93  OD2      -29.5880    3.2720   -1.0940 O.co2 134  ASP134     -0.2456
     94  N        -30.7050   -4.2300    0.7550 N.3   137  SER137     -0.1202
     95  CA       -29.3320   -4.6790    0.6040 C.3   137  SER137      0.2020
     96  C        -28.3880   -4.0960    1.6330 C.2   137  SER137      0.2619
     97  O        -27.3630   -4.6930    1.9560 O.2   137  SER137     -0.2717
     98  CB       -28.8660   -4.4310   -0.8200 C.3   137  SER137      0.2103
     99  OG       -28.5930   -3.0730   -1.0020 O.3   137  SER137     -0.2182
    100  N        -28.7920   -2.9690    2.1920 N.am  138  THR138     -0.1952
    101  CA       -28.0470   -2.3000    3.2290 C.3   138  THR138      0.1897
    102  C        -28.2840   -3.1010    4.4940 C.2   138  THR138      0.2313
    103  O        -27.3880   -3.2970    5.2880 O.2   138  THR138     -0.2863
    104  CB       -28.5800   -0.8850    3.4420 C.3   138  THR138      0.1794
    105  OG1      -28.2680   -0.0810    2.3070 O.3   138  THR138     -0.2208
    106  CG2      -27.9700   -0.2670    4.6620 C.3   138  THR138      0.0378
    107  N        -26.3230   -6.4430    4.2320 N.3   141  THR141     -0.1218
    108  CA       -24.8990   -6.2000    4.3980 C.3   141  THR141      0.1862
    109  C        -24.5520   -5.9050    5.8520 C.2   141  THR141      0.2287
    110  O        -23.5410   -6.3790    6.3660 O.2   141  THR141     -0.2866
    111  CB       -24.4420   -5.0320    3.5190 C.3   141  THR141      0.1770
    112  OG1      -24.7450   -5.3360    2.1540 O.3   141  THR141     -0.2211
    113  CG2      -22.9420   -4.8180    3.6480 C.3   141  THR141      0.0375
@<TRIPOS>BOND
     1    70    71    1
     2    72    71    1
     3    72    73    2
     4    76    77    2
     5    76    75    1
     6    74    75    1
     7    78    75    1
     8    78    79    1
     9    81    80    1
    10    80    79    1
    11    66    65    2
    12    65    64    1
    13    14    15    2
    14    14    13    1
    15    16    13    1
    16    16    17    1
    17    18    17    1
    18    64    67    1
    19    64    63    1
    20    13    12    1
    21    67    68    1
    22    68    69    1
    23    17    19    1
    24    63    69    1
    25     3     4    2
    26     3     2    1
    27     1     2    1
    28     2     5    1
    29     8    10   ar
    30     8     6   ar
    31     5     6    1
    32    10    11   ar
    33     6     7   ar
    34    54    55    2
    35    54    53    1
    36    11     9   ar
    37    58    57    1
    38    58    59    1
    39     7     9   ar
    40    57    56    1
    41    83    82    1
    42    83    84    1
    43    53    56    1
    44    53    52    1
    45    61    60    1
    46    59    60    2
    47    84    86   am
    48    84    85    2
    49    60    62    1
    50    86    87    1
    51    26    25    1
    52    90    87    1
    53    90    91    1
    54    87    88    1
    55    93    91   ar
    56    20    21    1
    57    99    98    1
    58    24    21    1
    59    24    25    1
    60    98    95    1
    61    21    22    1
    62    91    92   ar
    63    27    25    1
    64    40    43    1
    65    40    41    1
    66    40    39    1
    67    88    89    2
    68    42    41    2
    69    22    23    2
    70    95    94    1
    71    95    96    1
    72    41    44   am
    73    38    37   ar
    74    38    36   ar
    75    37    35   ar
    76    28    29    1
    77    96    97    2
    78    96   100   am
    79    36    34   ar
    80    35    33   ar
    81    44    45    1
    82   112   111    1
    83   100   101    1
    84    46    47    2
    85    46    45    1
    86   105   104    1
    87    34    33   ar
    88    33    32    1
    89    29    32    1
    90    29    30    1
    91    45    48    1
    92   101   104    1
    93   101   102    1
    94   104   106    1
    95   111   113    1
    96   111   108    1
    97    30    31    2
    98   107   108    1
    99    48    50    1
   100    48    49    1
   101   108   109    1
   102   102   103    2
   103    51    49    1
   104   109   110    2
