@<TRIPOS>MOLECULE
tmp/3b6hB00.pdb
 159 152 0 0 0
SMALL
GASTEIGER

@<TRIPOS>ATOM
      1  N         31.7830   28.2340   95.5280 N.3    24  PHE24      -0.1227
      2  CA        32.2750   28.5960   94.2000 C.3    24  PHE24       0.1736
      3  C         31.5690   27.8070   93.0950 C.2    24  PHE24       0.2596
      4  O         31.1700   28.3790   92.0730 O.2    24  PHE24      -0.2718
      5  CB        33.7960   28.3900   94.1480 C.3    24  PHE24       0.0547
      6  CG        34.4290   28.7820   92.8450 C.ar   24  PHE24      -0.0202
      7  CD1       34.7940   30.0980   92.6060 C.ar   24  PHE24      -0.0042
      8  CD2       34.6840   27.8270   91.8670 C.ar   24  PHE24      -0.0042
      9  CE1       35.3900   30.4670   91.3980 C.ar   24  PHE24      -0.0003
     10  CE2       35.2770   28.1850   90.6560 C.ar   24  PHE24      -0.0003
     11  CZ        35.6310   29.5110   90.4300 C.ar   24  PHE24      -0.0000
     12  N         31.4100   26.4990   93.3050 N.am   25  GLY25      -0.1957
     13  CA        30.7370   25.6340   92.3350 C.3    25  GLY25       0.1869
     14  C         29.2610   25.9400   92.1620 C.2    25  GLY25       0.2309
     15  O         28.7410   25.9030   91.0400 O.2    25  GLY25      -0.2863
     16  N         40.2060   26.4240   97.2210 N.3    47  VAL47      -0.1245
     17  CA        39.1270   25.7310   96.5050 C.3    47  VAL47       0.1561
     18  C         39.5670   24.3070   96.1870 C.2    47  VAL47       0.2260
     19  O         40.4050   24.0830   95.3070 O.2    47  VAL47      -0.2867
     20  CB        38.7240   26.4570   95.1900 C.3    47  VAL47       0.0252
     21  CG1       37.6840   25.6390   94.4140 C.3    47  VAL47       0.0019
     22  CG2       38.1950   27.8580   95.4700 C.3    47  VAL47       0.0019
     23  N         43.2920   23.4870   96.0270 N.3    50  ARG50      -0.1245
     24  CA        44.0250   24.4500   95.2020 C.3    50  ARG50       0.1563
     25  C         43.8860   25.8660   95.7440 C.2    50  ARG50       0.2260
     26  O         42.8340   26.2450   96.2690 O.2    50  ARG50      -0.2867
     27  CB        43.5210   24.4210   93.7520 C.3    50  ARG50       0.0307
     28  CG        43.8090   23.1310   92.9760 C.3    50  ARG50       0.0489
     29  CD        45.3050   22.8270   92.8240 C.3    50  ARG50       0.2205
     30  NE        46.0660   23.9180   92.2080 N.pl3  50  ARG50      -0.0865
     31  CZ        46.0670   24.1990   90.9070 C.cat  50  ARG50       0.5346
     32  NH1       45.3390   23.4780   90.0590 N.pl3  50  ARG50       0.1354
     33  NH2       46.7930   25.2090   90.4500 N.pl3  50  ARG50       0.1354
     34  N         43.5930   29.5850   94.6190 N.3    52  VAL52      -0.1245
     35  CA        43.1790   30.3250   93.4360 C.3    52  VAL52       0.1561
     36  C         43.2130   31.8070   93.7640 C.2    52  VAL52       0.2260
     37  O         42.4710   32.2730   94.6280 O.2    52  VAL52      -0.2867
     38  CB        41.7580   29.9050   92.9710 C.3    52  VAL52       0.0252
     39  CG1       41.3630   30.6630   91.7050 C.3    52  VAL52       0.0019
     40  CG2       41.6970   28.3940   92.6970 C.3    52  VAL52       0.0019
     41  N         47.3390   24.8830   80.1940 N.3    76  ALA76      -0.1231
     42  CA        46.9020   23.8830   81.1760 C.3    76  ALA76       0.1694
     43  C         45.4250   23.5220   81.0790 C.2    76  ALA76       0.2592
     44  O         45.0620   22.3450   81.1960 O.2    76  ALA76      -0.2718
     45  CB        47.2470   24.3290   82.5830 C.3    76  ALA76       0.0304
     46  N         44.5720   24.5190   80.8630 N.am   77  TYR77      -0.1976
     47  CA        43.1540   24.2360   80.7220 C.3    77  TYR77       0.1639
     48  C         42.8420   23.4310   79.4530 C.2    77  TYR77       0.2290
     49  O         42.0690   22.4660   79.4980 O.2    77  TYR77      -0.2864
     50  CB        42.2860   25.4920   80.7910 C.3    77  TYR77       0.0560
     51  CG        40.8300   25.1240   80.7110 C.ar   77  TYR77      -0.0198
     52  CD1       40.2760   24.2320   81.6340 C.ar   77  TYR77      -0.0009
     53  CD2       40.0140   25.6180   79.6980 C.ar   77  TYR77      -0.0009
     54  CE1       38.9520   23.8560   81.5600 C.ar   77  TYR77       0.0417
     55  CE2       38.6750   25.2520   79.6240 C.ar   77  TYR77       0.0417
     56  CZ        38.1550   24.3710   80.5620 C.ar   77  TYR77       0.1957
     57  OH        36.8370   23.9920   80.5120 O.3    77  TYR77      -0.2866
     58  N         43.5810   19.9040   80.2140 N.3    80  PHE80      -0.1241
     59  CA        42.5190   19.3530   81.0560 C.3    80  PHE80       0.1605
     60  C         41.3000   18.9840   80.2260 C.2    80  PHE80       0.2264
     61  O         40.7850   17.8670   80.3180 O.2    80  PHE80      -0.2867
     62  CB        42.1150   20.3570   82.1390 C.3    80  PHE80       0.0534
     63  CG        40.8930   19.9460   82.9230 C.ar   80  PHE80      -0.0203
     64  CD1       39.6400   20.4760   82.6170 C.ar   80  PHE80      -0.0042
     65  CD2       40.9970   19.0350   83.9730 C.ar   80  PHE80      -0.0042
     66  CE1       38.5070   20.1030   83.3380 C.ar   80  PHE80      -0.0003
     67  CE2       39.8690   18.6590   84.7040 C.ar   80  PHE80      -0.0003
     68  CZ        38.6220   19.1940   84.3870 C.ar   80  PHE80      -0.0000
     69  N         40.9460   14.9820   80.0180 N.3    84  ARG84      -0.1245
     70  CA        40.0570   14.5010   81.0740 C.3    84  ARG84       0.1563
     71  C         38.5710   14.6010   80.7370 C.2    84  ARG84       0.2260
     72  O         37.7650   13.7960   81.2190 O.2    84  ARG84      -0.2867
     73  CB        40.3730   15.2100   82.3920 C.3    84  ARG84       0.0307
     74  CG        41.8060   14.9800   82.8700 C.3    84  ARG84       0.0489
     75  CD        42.0120   15.5000   84.2760 C.3    84  ARG84       0.2205
     76  NE        41.2150   14.7640   85.2570 N.pl3  84  ARG84      -0.0865
     77  CZ        40.9340   15.2090   86.4790 C.cat  84  ARG84       0.5346
     78  NH1       41.3750   16.3950   86.8820 N.pl3  84  ARG84       0.1354
     79  NH2       40.2010   14.4700   87.2990 N.pl3  84  ARG84       0.1354
     80  N         32.8500   17.7810   84.3220 N.3   196  ALA196     -0.1231
     81  CA        34.0220   18.5910   84.6510 C.3   196  ALA196      0.1694
     82  C         34.1980   18.7810   86.1550 C.2   196  ALA196      0.2591
     83  O         35.3280   18.8020   86.6540 O.2   196  ALA196     -0.2718
     84  CB        33.9460   19.9400   83.9430 C.3   196  ALA196      0.0304
     85  N         33.0850   18.9080   86.8730 N.am  197  ARG197     -0.1980
     86  CA        33.1360   19.0850   88.3270 C.3   197  ARG197      0.1597
     87  C         33.1310   17.7740   89.1110 C.2   197  ARG197      0.2287
     88  O         33.3490   17.7690   90.3270 O.2   197  ARG197     -0.2864
     89  CB        32.0270   20.0240   88.8060 C.3   197  ARG197      0.0334
     90  CG        32.4220   21.4900   88.7160 C.3   197  ARG197      0.0492
     91  CD        31.5360   22.3960   89.5610 C.3   197  ARG197      0.2205
     92  NE        30.1080   22.1470   89.3560 N.pl3 197  ARG197     -0.0865
     93  CZ        29.3740   22.6740   88.3790 C.cat 197  ARG197      0.5346
     94  NH1       29.9160   23.4920   87.4800 N.pl3 197  ARG197      0.1354
     95  NH2       28.0860   22.3700   88.3000 N.pl3 197  ARG197      0.1354
     96  N         35.8770   31.6780   82.2070 N.3   325  PHE325     -0.1241
     97  CA        37.0050   32.0240   83.0640 C.3   325  PHE325      0.1605
     98  C         38.2300   32.2310   82.1870 C.2   325  PHE325      0.2264
     99  O         38.3790   31.5780   81.1470 O.2   325  PHE325     -0.2867
    100  CB        37.3250   30.8970   84.0530 C.3   325  PHE325      0.0534
    101  CG        36.2770   30.6710   85.1200 C.ar  325  PHE325     -0.0203
    102  CD1       35.4200   31.6850   85.5340 C.ar  325  PHE325     -0.0042
    103  CD2       36.1850   29.4270   85.7440 C.ar  325  PHE325     -0.0042
    104  CE1       34.4690   31.4590   86.5360 C.ar  325  PHE325     -0.0003
    105  CE2       35.2380   29.1940   86.7440 C.ar  325  PHE325     -0.0003
    106  CZ        34.3790   30.2050   87.1380 C.ar  325  PHE325     -0.0000
    107  N         42.0290   31.6250   82.9430 N.3   327  THR327     -0.1218
    108  CA        42.9140   31.0840   83.9810 C.3   327  THR327      0.1862
    109  C         44.3310   30.8200   83.4990 C.2   327  THR327      0.2287
    110  O         44.5810   30.6370   82.3060 O.2   327  THR327     -0.2866
    111  CB        42.3560   29.7990   84.6200 C.3   327  THR327      0.1770
    112  OG1       42.4120   28.7290   83.6680 O.3   327  THR327     -0.2211
    113  CG2       40.9220   30.0120   85.1100 C.3   327  THR327      0.0375
    114  N         46.7020   28.8050   91.0060 N.3   351  ARG351     -0.1245
    115  CA        45.9360   29.1720   89.8180 C.3   351  ARG351      0.1563
    116  C         45.5780   30.6520   89.8790 C.2   351  ARG351      0.2260
    117  O         45.1860   31.1600   90.9280 O.2   351  ARG351     -0.2867
    118  CB        44.6660   28.3320   89.7180 C.3   351  ARG351      0.0307
    119  CG        43.7760   28.7000   88.5330 C.3   351  ARG351      0.0489
    120  CD        42.7190   27.6500   88.3360 C.3   351  ARG351      0.2205
    121  NE        43.3190   26.4070   87.8670 N.pl3 351  ARG351     -0.0865
    122  CZ        42.7090   25.2290   87.8830 C.cat 351  ARG351      0.5346
    123  NH1       41.4730   25.1210   88.3520 N.pl3 351  ARG351      0.1354
    124  NH2       43.3460   24.1570   87.4390 N.pl3 351  ARG351      0.1354
    125  N         42.9710   33.3910   88.2970 N.3   353  LEU353     -0.1245
    126  CA        41.6710   33.4110   87.6310 C.3   353  LEU353      0.1561
    127  C         41.1980   34.8430   87.4440 C.2   353  LEU353      0.2260
    128  O         41.1600   35.6210   88.3990 O.2   353  LEU353     -0.2867
    129  CB        40.6400   32.6160   88.4470 C.3   353  LEU353      0.0270
    130  CG        39.2490   32.4000   87.8290 C.3   353  LEU353      0.0019
    131  CD1       38.7080   31.0150   88.2030 C.3   353  LEU353      0.0001
    132  CD2       38.2650   33.4870   88.2190 C.3   353  LEU353      0.0001
    133  N         28.7520   28.6690   84.5350 N.3   450  TYR450     -0.1227
    134  CA        29.7810   29.6930   84.7680 C.3   450  TYR450      0.1736
    135  C         31.1620   29.1070   84.5390 C.2   450  TYR450      0.2596
    136  O         31.4850   28.0290   85.0590 O.2   450  TYR450     -0.2718
    137  CB        29.7190   30.2770   86.1800 C.3   450  TYR450      0.0548
    138  CG        28.6450   31.3080   86.4020 C.ar  450  TYR450     -0.0200
    139  CD1       28.5290   32.4280   85.5720 C.ar  450  TYR450     -0.0009
    140  CD2       27.7620   31.1860   87.4690 C.ar  450  TYR450     -0.0009
    141  CE1       27.5510   33.3790   85.7910 C.ar  450  TYR450      0.0417
    142  CE2       26.7780   32.1320   87.7000 C.ar  450  TYR450      0.0417
    143  CZ        26.6730   33.2280   86.8560 C.ar  450  TYR450      0.1957
    144  OH        25.7010   34.1760   87.0810 O.3   450  TYR450     -0.2866
    145  N         31.9670   29.8190   83.7520 N.am  451  GLY451     -0.1942
    146  CA        33.3410   29.4010   83.5020 C.3   451  GLY451      0.2014
    147  C         33.6280   28.8420   82.1210 C.2   451  GLY451      0.2638
    148  O         34.7580   28.9400   81.6370 O.2   451  GLY451     -0.2714
    149  N         32.6120   28.2710   81.4710 N.am  452  PHE452     -0.1973
    150  CA        32.8150   27.5720   80.1910 C.3   452  PHE452      0.1639
    151  C         32.7290   28.4580   78.9450 C.2   452  PHE452      0.2290
    152  O         33.4360   28.2250   77.9460 O.2   452  PHE452     -0.2864
    153  CB        31.8370   26.3970   80.0730 C.3   452  PHE452      0.0560
    154  CG        32.0950   25.2970   81.0680 C.ar  452  PHE452     -0.0200
    155  CD1       31.3270   25.1950   82.2250 C.ar  452  PHE452     -0.0042
    156  CD2       33.1120   24.3700   80.8510 C.ar  452  PHE452     -0.0042
    157  CE1       31.5640   24.1800   83.1510 C.ar  452  PHE452     -0.0003
    158  CE2       33.3660   23.3500   81.7730 C.ar  452  PHE452     -0.0003
    159  CZ        32.5880   23.2530   82.9230 C.ar  452  PHE452     -0.0000
@<TRIPOS>BOND
     1   152   151    2
     2   151   150    1
     3    48    49    2
     4    48    47    1
     5    55    53   ar
     6    55    56   ar
     7    53    51   ar
     8    69    70    1
     9   153   150    1
    10   153   154    1
    11   150   149    1
    12    41    42    1
    13    58    59    1
    14    60    61    2
    15    60    59    1
    16    57    56    1
    17    56    54   ar
    18    51    50    1
    19    51    52   ar
    20    47    50    1
    21    47    46    1
    22    71    70    1
    23    71    72    2
    24   156   154   ar
    25   156   158   ar
    26    46    43   am
    27    59    62    1
    28   154   155   ar
    29    70    73    1
    30    43    42    1
    31    43    44    2
    32    99    98    2
    33    42    45    1
    34   149   147   am
    35    54    52   ar
    36   148   147    2
    37   158   159   ar
    38   147   146    1
    39    62    63    1
    40    98    97    1
    41    96    97    1
    42   155   157   ar
    43   110   109    2
    44    73    74    1
    45    64    63   ar
    46    64    66   ar
    47    74    75    1
    48   159   157   ar
    49    63    65   ar
    50   107   108    1
    51    97   100    1
    52    66    68   ar
    53   109   108    1
    54   146   145    1
    55   112   111    1
    56   145   135   am
    57    84    81    1
    58    65    67   ar
    59   108   111    1
    60   100   101    1
    61    75    76    1
    62    80    81    1
    63    68    67   ar
    64   133   134    1
    65   135   134    1
    66   135   136    2
    67   111   113    1
    68    81    82    1
    69   134   137    1
    70   101   102   ar
    71   101   103   ar
    72    76    77    2
    73   102   104   ar
    74   139   141   ar
    75   139   138   ar
    76   103   105   ar
    77   141   143   ar
    78    82    83    2
    79    82    85   am
    80   137   138    1
    81   138   140   ar
    82    77    78    1
    83    77    79    1
    84   104   106   ar
    85   105   106   ar
    86   143   144    1
    87   143   142   ar
    88    85    86    1
    89   124   122    1
    90   127   126    1
    91   127   128    2
    92   140   142   ar
    93    94    93    1
    94   126   125    1
    95   126   129    1
    96   130   131    1
    97   130   132    1
    98   130   129    1
    99   121   122    2
   100   121   120    1
   101   122   123    1
   102    95    93    1
   103    86    89    1
   104    86    87    1
   105   120   119    1
   106    93    92    2
   107   119   118    1
   108    90    89    1
   109    90    91    1
   110    87    88    2
   111    92    91    1
   112   118   115    1
   113   115   116    1
   114   115   114    1
   115   116   117    2
   116    32    31    1
   117    11    10   ar
   118    11     9   ar
   119    33    31    1
   120    10     8   ar
   121    31    30    2
   122    15    14    2
   123     9     7   ar
   124    39    38    1
   125     8     6   ar
   126     4     3    2
   127    14    13    1
   128    30    29    1
   129    13    12    1
   130     7     6   ar
   131    40    38    1
   132    29    28    1
   133     6     5    1
   134    38    35    1
   135    28    27    1
   136     3    12   am
   137     3     2    1
   138    35    36    1
   139    35    34    1
   140    27    24    1
   141    36    37    2
   142     5     2    1
   143     2     1    1
   144    21    20    1
   145    20    22    1
   146    20    17    1
   147    24    25    1
   148    24    23    1
   149    19    18    2
   150    25    26    2
   151    18    17    1
   152    17    16    1
