@<TRIPOS>MOLECULE
tmp/3b6hB01.pdb
 109 105 0 0 0
SMALL
GASTEIGER

@<TRIPOS>ATOM
      1  N         44.5720   24.5190   80.8630 N.3    77  TYR77      -0.1227
      2  CA        43.1540   24.2360   80.7220 C.3    77  TYR77       0.1736
      3  C         42.8420   23.4310   79.4530 C.2    77  TYR77       0.2595
      4  O         42.0690   22.4660   79.4980 O.2    77  TYR77      -0.2718
      5  CB        42.2860   25.4920   80.7910 C.3    77  TYR77       0.0548
      6  CG        40.8300   25.1240   80.7110 C.ar   77  TYR77      -0.0200
      7  CD1       40.2760   24.2320   81.6340 C.ar   77  TYR77      -0.0009
      8  CD2       40.0140   25.6180   79.6980 C.ar   77  TYR77      -0.0009
      9  CE1       38.9520   23.8560   81.5600 C.ar   77  TYR77       0.0417
     10  CE2       38.6750   25.2520   79.6240 C.ar   77  TYR77       0.0417
     11  CZ        38.1550   24.3710   80.5620 C.ar   77  TYR77       0.1957
     12  OH        36.8370   23.9920   80.5120 O.3    77  TYR77      -0.2866
     13  N         43.4430   23.8270   78.3320 N.am   78  ALA78      -0.1980
     14  CA        43.3100   23.0710   77.0870 C.3    78  ALA78       0.1597
     15  C         43.6320   21.5940   77.3090 C.2    78  ALA78       0.2287
     16  O         42.9050   20.7180   76.8310 O.2    78  ALA78      -0.2864
     17  CB        44.2030   23.6550   76.0060 C.3    78  ALA78       0.0319
     18  N         40.8430   19.9400   79.4210 N.3    81  LEU81      -0.1231
     19  CA        39.6620   19.7640   78.5940 C.3    81  LEU81       0.1693
     20  C         39.8490   18.5980   77.6310 C.2    81  LEU81       0.2591
     21  O         38.9960   17.7160   77.5340 O.2    81  LEU81      -0.2718
     22  CB        39.3690   21.0620   77.8310 C.3    81  LEU81       0.0284
     23  CG        38.0130   21.2090   77.1380 C.3    81  LEU81       0.0019
     24  CD1       36.8570   21.1200   78.1340 C.3    81  LEU81       0.0001
     25  CD2       37.9760   22.5210   76.3750 C.3    81  LEU81       0.0001
     26  N         40.9880   18.5870   76.9450 N.am   82  MET82      -0.1979
     27  CA        41.2950   17.5520   75.9680 C.3    82  MET82       0.1605
     28  C         41.3630   16.1750   76.6100 C.2    82  MET82       0.2287
     29  O         40.6610   15.2560   76.1860 O.2    82  MET82      -0.2864
     30  CB        42.6230   17.8510   75.2780 C.3    82  MET82       0.0413
     31  CG        42.6030   19.0620   74.3690 C.3    82  MET82       0.0598
     32  SD        44.2740   19.5990   73.9680 S.3    82  MET82      -0.1393
     33  CE        44.9930   18.0360   73.4690 C.3    82  MET82       0.0692
     34  N         35.9550   16.8250   70.1770 N.3   257  LEU257     -0.1231
     35  CA        36.4300   17.9480   70.9830 C.3   257  LEU257      0.1693
     36  C         36.2340   19.2510   70.2100 C.2   257  LEU257      0.2591
     37  O         35.6880   20.2160   70.7380 O.2   257  LEU257     -0.2718
     38  CB        37.9020   17.7590   71.3730 C.3   257  LEU257      0.0284
     39  CG        38.6810   19.0010   71.8230 C.3   257  LEU257      0.0019
     40  CD1       38.2480   19.4640   73.1970 C.3   257  LEU257      0.0001
     41  CD2       40.1750   18.7000   71.7810 C.3   257  LEU257      0.0001
     42  N         36.6470   19.2580   68.9470 N.am  258  GLN258     -0.1979
     43  CA        36.5290   20.4600   68.1290 C.3   258  GLN258      0.1601
     44  C         35.0760   20.8480   67.8560 C.2   258  GLN258      0.2287
     45  O         34.7450   22.0390   67.8110 O.2   258  GLN258     -0.2864
     46  CB        37.3230   20.3170   66.8330 C.3   258  GLN258      0.0394
     47  CG        38.8360   20.3800   67.0430 C.3   258  GLN258      0.0908
     48  CD        39.3160   21.6930   67.6580 C.2   258  GLN258      0.2608
     49  OE1       38.7130   22.7520   67.4650 O.2   258  GLN258     -0.2717
     50  NE2       40.4120   21.6230   68.4000 N.am  258  GLN258     -0.0878
     51  N         32.5400   20.4090   69.9390 N.3   260  TRP260     -0.1227
     52  CA        32.0710   21.1130   71.1280 C.3   260  TRP260      0.1737
     53  C         32.7390   22.4800   71.2720 C.2   260  TRP260      0.2595
     54  O         32.0860   23.4690   71.5960 O.2   260  TRP260     -0.2718
     55  CB        32.2740   20.2780   72.3930 C.3   260  TRP260      0.0564
     56  CG        31.6890   20.9580   73.5940 C.ar  260  TRP260      0.0003
     57  CD1       30.3970   20.8930   74.0250 C.ar  260  TRP260      0.0946
     58  CD2       32.3680   21.8430   74.4930 C.ar  260  TRP260      0.0152
     59  NE1       30.2280   21.6740   75.1460 N.ar  260  TRP260     -0.2442
     60  CE2       31.4240   22.2680   75.4550 C.ar  260  TRP260      0.0810
     61  CE3       33.6880   22.3020   74.5890 C.ar  260  TRP260      0.0012
     62  CZ2       31.7560   23.1400   76.4980 C.ar  260  TRP260      0.0191
     63  CZ3       34.0190   23.1720   75.6250 C.ar  260  TRP260      0.0001
     64  CH2       33.0540   23.5770   76.5670 C.ar  260  TRP260      0.0015
     65  N         34.0460   22.5310   71.0290 N.am  261  ALA261     -0.1966
     66  CA        34.7990   23.7680   71.2220 C.3   261  ALA261      0.1728
     67  C         34.2330   24.8660   70.3390 C.2   261  ALA261      0.2616
     68  O         33.9800   25.9780   70.8120 O.2   261  ALA261     -0.2715
     69  CB        36.2710   23.5450   70.9310 C.3   261  ALA261      0.0334
     70  N         34.0060   24.5350   69.0670 N.am  262  THR262     -0.1951
     71  CA        33.6030   25.5250   68.0570 C.3   262  THR262      0.1897
     72  C         32.0920   25.7630   67.9510 C.2   262  THR262      0.2313
     73  O         31.6700   26.7920   67.4260 O.2   262  THR262     -0.2863
     74  CB        34.1270   25.1670   66.6390 C.3   262  THR262      0.1794
     75  OG1       33.5050   23.9630   66.1760 O.3   262  THR262     -0.2208
     76  CG2       35.6430   25.0120   66.6320 C.3   262  THR262      0.0378
     77  N         28.9180   27.5500   71.7060 N.3   265  ASN265     -0.1240
     78  CA        28.5880   28.9320   72.1010 C.3   265  ASN265      0.1653
     79  C         27.6960   29.7260   71.1430 C.2   265  ASN265      0.2266
     80  O         26.9160   30.5670   71.5970 O.2   265  ASN265     -0.2867
     81  CB        29.8570   29.7350   72.4040 C.3   265  ASN265      0.1155
     82  CG        30.6080   29.2110   73.6190 C.2   265  ASN265      0.2627
     83  OD1       30.0540   29.1070   74.7170 O.2   265  ASN265     -0.2716
     84  ND2       31.8710   28.8660   73.4240 N.am  265  ASN265     -0.0877
     85  N         45.0040   33.5010   74.7860 N.3   408  ASN408     -0.1240
     86  CA        43.7830   32.7200   74.6200 C.3   408  ASN408      0.1653
     87  C         42.5920   33.5940   74.1950 C.2   408  ASN408      0.2266
     88  O         41.7460   33.9820   75.0060 O.2   408  ASN408     -0.2867
     89  CB        43.4880   31.9000   75.8870 C.3   408  ASN408      0.1155
     90  CG        44.4670   30.7390   76.0830 C.2   408  ASN408      0.2627
     91  OD1       45.1370   30.2960   75.1450 O.2   408  ASN408     -0.2716
     92  ND2       44.5530   30.2460   77.3110 N.am  408  ASN408     -0.0877
     93  N         39.5780   34.1880   70.8910 N.3   410  CYS410     -0.1235
     94  CA        38.8550   33.4710   69.8340 C.3   410  CYS410      0.1677
     95  C         39.4440   33.6770   68.4460 C.2   410  CYS410      0.2270
     96  O         39.4420   34.7930   67.9270 O.2   410  CYS410     -0.2867
     97  CB        37.3850   33.8720   69.8100 C.3   410  CYS410      0.0956
     98  SG        36.4460   32.7870   68.7190 S.3   410  CYS410     -0.0801
     99  N         32.6120   28.2710   81.4710 N.3   452  PHE452     -0.1241
    100  CA        32.8150   27.5720   80.1910 C.3   452  PHE452      0.1605
    101  C         32.7290   28.4580   78.9450 C.2   452  PHE452      0.2264
    102  O         33.4360   28.2250   77.9460 O.2   452  PHE452     -0.2867
    103  CB        31.8370   26.3970   80.0730 C.3   452  PHE452      0.0534
    104  CG        32.0950   25.2970   81.0680 C.ar  452  PHE452     -0.0203
    105  CD1       31.3270   25.1950   82.2250 C.ar  452  PHE452     -0.0042
    106  CD2       33.1120   24.3700   80.8510 C.ar  452  PHE452     -0.0042
    107  CE1       31.5640   24.1800   83.1510 C.ar  452  PHE452     -0.0003
    108  CE2       33.3660   23.3500   81.7730 C.ar  452  PHE452     -0.0003
    109  CZ        32.5880   23.2530   82.9230 C.ar  452  PHE452     -0.0000
@<TRIPOS>BOND
     1    75    74    1
     2    76    74    1
     3    74    71    1
     4    46    47    1
     5    46    43    1
     6    47    48    1
     7    73    72    2
     8    49    48    2
     9    48    50   am
    10    45    44    2
    11    44    43    1
    12    96    95    2
    13    72    71    1
    14    71    70    1
    15    43    42    1
    16    95    94    1
    17    98    97    1
    18    42    36   am
    19    70    67   am
    20    97    94    1
    21    94    93    1
    22    51    52    1
    23    34    35    1
    24    36    37    2
    25    36    35    1
    26    67    68    2
    27    67    66    1
    28    69    66    1
    29    35    38    1
    30    65    66    1
    31    65    53   am
    32    52    53    1
    33    52    55    1
    34    79    80    2
    35    79    78    1
    36    53    54    2
    37    38    39    1
    38    77    78    1
    39    41    39    1
    40    39    40    1
    41    78    81    1
    42    55    56    1
    43    81    82    1
    44    84    82   am
    45    33    32    1
    46    56    57   ar
    47    56    58   ar
    48    82    83    2
    49    32    31    1
    50    57    59   ar
    51    87    86    1
    52    87    88    2
    53    31    30    1
    54    58    61   ar
    55    58    60   ar
    56    61    63   ar
    57    86    85    1
    58    86    89    1
    59    91    90    2
    60    59    60   ar
    61    30    27    1
    62    60    62   ar
    63    63    64   ar
    64    89    90    1
    65    27    28    1
    66    27    26    1
    67    17    14    1
    68    90    92   am
    69    29    28    2
    70    25    23    1
    71    62    64   ar
    72    16    15    2
    73    26    20   am
    74    14    15    1
    75    14    13    1
    76    23    22    1
    77    23    24    1
    78    21    20    2
    79    20    19    1
    80    22    19    1
    81   102   101    2
    82    13     3   am
    83    19    18    1
    84   101   100    1
    85     3     4    2
    86     3     2    1
    87    10     8   ar
    88    10    11   ar
    89     8     6   ar
    90   103   100    1
    91   103   104    1
    92   100    99    1
    93    12    11    1
    94    11     9   ar
    95     6     5    1
    96     6     7   ar
    97     2     5    1
    98     2     1    1
    99   106   104   ar
   100   106   108   ar
   101   104   105   ar
   102     9     7   ar
   103   108   109   ar
   104   105   107   ar
   105   109   107   ar
