@<TRIPOS>MOLECULE
tmp/3b6iA01.pdb
 81 77 0 0 0
SMALL
GASTEIGER

@<TRIPOS>ATOM
      1  N         29.4300    6.6080   24.2300 N.3    28  VAL28      -0.1231
      2  CA        30.8850    6.5910   24.2120 C.3    28  VAL28       0.1692
      3  C         31.4480    6.6750   25.6280 C.2    28  VAL28       0.2592
      4  O         31.2420    7.6540   26.3450 O.2    28  VAL28      -0.2718
      5  CB        31.4680    7.7280   23.3210 C.3    28  VAL28       0.0266
      6  CG1       33.0070    7.7160   23.3470 C.3    28  VAL28       0.0020
      7  CG2       30.9440    7.5830   21.8940 C.3    28  VAL28       0.0020
      8  N         32.1730    5.6300   26.0140 N.am   29  ASP29      -0.1974
      9  CA        32.8240    5.6020   27.3120 C.3    29  ASP29       0.1709
     10  C         33.7840    6.7850   27.4390 C.2    29  ASP29       0.2293
     11  O         34.6530    6.9800   26.5860 O.2    29  ASP29      -0.2864
     12  CB        33.5750    4.2750   27.4700 C.3    29  ASP29       0.1436
     13  CG        34.0530    4.0250   28.8930 C.2    29  ASP29       0.3671
     14  OD1       33.5520    4.6790   29.8450 O.co2  29  ASP29      -0.2456
     15  OD2       34.9470    3.1560   29.0460 O.co2  29  ASP29      -0.2456
     16  N         28.3650    7.0300    6.3670 N.3   143  ALA143     -0.1245
     17  CA        28.5380    5.9110    7.3170 C.3   143  ALA143      0.1562
     18  C         27.1840    5.3620    7.7630 C.2   143  ALA143      0.2260
     19  O         27.0250    4.1400    7.9520 O.2   143  ALA143     -0.2867
     20  CB        29.3580    6.3340    8.5230 C.3   143  ALA143      0.0290
     21  N         23.8480    8.3390   15.3990 N.3   183  TYR183     -0.1241
     22  CA        25.1550    8.0500   14.8020 C.3   183  TYR183      0.1605
     23  C         26.0530    9.2960   14.8970 C.2   183  TYR183      0.2264
     24  O         27.2310    9.2150   15.2650 O.2   183  TYR183     -0.2867
     25  CB        25.0520    7.6250   13.3440 C.3   183  TYR183      0.0534
     26  CG        26.4450    7.5770   12.7560 C.ar  183  TYR183     -0.0201
     27  CD1       27.3070    6.5210   13.0650 C.ar  183  TYR183     -0.0009
     28  CD2       26.9460    8.6420   11.9820 C.ar  183  TYR183     -0.0009
     29  CE1       28.6120    6.4820   12.5740 C.ar  183  TYR183      0.0417
     30  CE2       28.2600    8.6180   11.4900 C.ar  183  TYR183      0.0417
     31  CZ        29.0910    7.5410   11.7840 C.ar  183  TYR183      0.1957
     32  OH        30.4040    7.4750   11.3130 O.3   183  TYR183     -0.2866
     33  N         27.3200    9.8640   18.4490 N.3   186  GLU186     -0.1231
     34  CA        28.2670    8.8180   18.8120 C.3   186  GLU186      0.1699
     35  C         29.6220    9.0360   18.1390 C.2   186  GLU186      0.2592
     36  O         30.6730    8.9720   18.7820 O.2   186  GLU186     -0.2718
     37  CB        27.7120    7.4380   18.4500 C.3   186  GLU186      0.0402
     38  CG        28.5480    6.3380   19.0870 C.3   186  GLU186      0.1161
     39  CD        28.0420    4.9360   18.7890 C.2   186  GLU186      0.3649
     40  OE1       26.9060    4.7810   18.2720 O.co2 186  GLU186     -0.2457
     41  OE2       28.8120    3.9860   19.0650 O.co2 186  GLU186     -0.2457
     42  N         29.5770    9.3180   16.8390 N.am  187  TYR187     -0.1976
     43  CA        30.7800    9.5780   16.0480 C.3   187  TYR187      0.1639
     44  C         31.5800   10.7680   16.6090 C.2   187  TYR187      0.2290
     45  O         32.7880   10.6570   16.8620 O.2   187  TYR187     -0.2864
     46  CB        30.3830    9.7880   14.5760 C.3   187  TYR187      0.0560
     47  CG        31.5280   10.1520   13.6550 C.ar  187  TYR187     -0.0198
     48  CD1       32.7520    9.4640   13.7050 C.ar  187  TYR187     -0.0009
     49  CD2       31.3890   11.1920   12.7230 C.ar  187  TYR187     -0.0009
     50  CE1       33.8140    9.8130   12.8680 C.ar  187  TYR187      0.0417
     51  CE2       32.4420   11.5380   11.8720 C.ar  187  TYR187      0.0417
     52  CZ        33.6500   10.8510   11.9490 C.ar  187  TYR187      0.1957
     53  OH        34.6830   11.2010   11.1140 O.3   187  TYR187     -0.2866
     54  N         33.0510   10.1070   19.9970 N.3   190  GLY190     -0.1210
     55  CA        34.2150    9.2260   19.8140 C.3   190  GLY190      0.1956
     56  C         35.4770    9.9910   19.4540 C.2   190  GLY190      0.2611
     57  O         36.5370    9.7650   20.0380 O.2   190  GLY190     -0.2717
     58  N         35.3460   10.9310   18.5060 N.am  191  LEU191     -0.1979
     59  CA        36.4460   11.8080   18.1260 C.3   191  LEU191      0.1596
     60  C         36.8900   12.6600   19.3130 C.2   191  LEU191      0.2287
     61  O         38.0900   12.8780   19.5210 O.2   191  LEU191     -0.2864
     62  CB        35.9860   12.6990   16.9640 C.3   191  LEU191      0.0297
     63  CG        36.9230   13.3940   15.9770 C.3   191  LEU191      0.0022
     64  CD1       38.0970   12.5330   15.5370 C.3   191  LEU191      0.0001
     65  CD2       36.0860   13.8020   14.7680 C.3   191  LEU191      0.0001
     66  N         36.6920   11.9880   22.4990 N.3   193  VAL193     -0.1231
     67  CA        37.4210   11.1600   23.4900 C.3   193  VAL193      0.1692
     68  C         38.7920   10.7700   22.9440 C.2   193  VAL193      0.2591
     69  O         39.7950   10.8020   23.6700 O.2   193  VAL193     -0.2718
     70  CB        36.5840    9.9190   23.9200 C.3   193  VAL193      0.0266
     71  CG1       37.4090    8.9320   24.7700 C.3   193  VAL193      0.0020
     72  CG2       35.3520   10.3630   24.7010 C.3   193  VAL193      0.0020
     73  N         38.8440   10.4220   21.6660 N.am  194  LYS194     -0.1980
     74  CA        40.1270   10.1750   21.0090 C.3   194  LYS194      0.1596
     75  C         41.0830   11.3610   21.1600 C.2   194  LYS194      0.2287
     76  O         42.2620   11.1810   21.4560 O.2   194  LYS194     -0.2864
     77  CB        39.9280    9.8400   19.5370 C.3   194  LYS194      0.0298
     78  CG        39.3990    8.4460   19.3120 C.3   194  LYS194      0.0038
     79  CD        39.2870    8.1400   17.8480 C.3   194  LYS194      0.0206
     80  CE        38.8930    6.6860   17.6560 C.3   194  LYS194      0.1093
     81  NZ        38.7230    6.3540   16.2210 N.3   194  LYS194     -0.1314
@<TRIPOS>BOND
     1    16    17    1
     2    17    18    1
     3    17    20    1
     4    18    19    2
     5    53    52    1
     6    32    31    1
     7    30    31   ar
     8    30    28   ar
     9    31    29   ar
    10    51    52   ar
    11    51    49   ar
    12    52    50   ar
    13    28    26   ar
    14    29    27   ar
    15    49    47   ar
    16    26    27   ar
    17    26    25    1
    18    50    48   ar
    19    25    22    1
    20    47    48   ar
    21    47    46    1
    22    46    43    1
    23    65    63    1
    24    22    23    1
    25    22    21    1
    26    23    24    2
    27    64    63    1
    28    63    62    1
    29    43    44    1
    30    43    42    1
    31    81    80    1
    32    44    45    2
    33    42    35   am
    34    62    59    1
    35    80    79    1
    36    79    78    1
    37    59    58    1
    38    59    60    1
    39    35    36    2
    40    35    34    1
    41    40    39   ar
    42    33    34    1
    43    37    34    1
    44    37    38    1
    45    58    56   am
    46    39    41   ar
    47    39    38    1
    48    78    77    1
    49    60    61    2
    50    56    55    1
    51    56    57    2
    52    77    74    1
    53    55    54    1
    54    74    75    1
    55    74    73    1
    56    75    76    2
    57    73    68   am
    58     7     5    1
    59    66    67    1
    60    68    67    1
    61    68    69    2
    62     5     6    1
    63     5     2    1
    64    67    70    1
    65    70    72    1
    66    70    71    1
    67     2     1    1
    68     2     3    1
    69     3     8   am
    70     3     4    2
    71     8     9    1
    72    11    10    2
    73     9    10    1
    74     9    12    1
    75    12    13    1
    76    13    15   ar
    77    13    14   ar
