@<TRIPOS>MOLECULE
tmp/3b6jA00.pdb
 133 132 0 0 0
SMALL
GASTEIGER

@<TRIPOS>ATOM
      1  N         15.2680   25.1540   19.1040 N.3     9  SER9       -0.1202
      2  CA        14.0430   24.5260   18.6150 C.3     9  SER9        0.2020
      3  C         12.8600   25.3880   19.0060 C.2     9  SER9        0.2619
      4  O         12.7740   25.8710   20.1730 O.2     9  SER9       -0.2717
      5  CB        13.8740   23.1050   19.1810 C.3     9  SER9        0.2103
      6  OG        12.8210   22.3680   18.5450 O.3     9  SER9       -0.2182
      7  N         11.9570   25.6010   18.0510 N.am   10  MET10      -0.1965
      8  CA        10.6970   26.2860   18.3270 C.3    10  MET10       0.1736
      9  C          9.5530   25.3400   18.7110 C.2    10  MET10       0.2616
     10  O          8.8900   25.5460   19.7040 O.2    10  MET10      -0.2715
     11  CB        10.2880   27.1850   17.1490 C.3    10  MET10       0.0427
     12  CG         9.0440   28.0070   17.4580 C.3    10  MET10       0.0599
     13  SD         8.8880   29.6640   16.7270 S.3    10  MET10      -0.1393
     14  CE         7.4410   30.1390   17.6890 C.3    10  MET10       0.0692
     15  N          9.3390   24.3070   17.8980 N.am   11  TYR11      -0.1960
     16  CA         8.2360   23.3920   18.0870 C.3    11  TYR11       0.1771
     17  C          8.6750   21.9910   18.4800 C.2    11  TYR11       0.2620
     18  O          7.8360   21.0820   18.4790 O.2    11  TYR11      -0.2715
     19  CB         7.3940   23.3220   16.8000 C.3    11  TYR11       0.0574
     20  CG         6.8370   24.6620   16.3690 C.ar   11  TYR11      -0.0198
     21  CD1        7.3460   25.3250   15.2550 C.ar   11  TYR11      -0.0009
     22  CD2        5.8300   25.2940   17.1230 C.ar   11  TYR11      -0.0009
     23  CE1        6.8240   26.5630   14.8620 C.ar   11  TYR11       0.0417
     24  CE2        5.3120   26.5150   16.7520 C.ar   11  TYR11       0.0417
     25  CZ         5.8170   27.1470   15.6170 C.ar   11  TYR11       0.1957
     26  OH         5.3210   28.3580   15.2560 O.3    11  TYR11      -0.2866
     27  N          9.9750   21.7730   18.7470 N.am   12  GLY12      -0.1940
     28  CA        10.4300   20.5000   19.3130 C.3    12  GLY12       0.2014
     29  C         11.0890   19.4530   18.4130 C.2    12  GLY12       0.2639
     30  O         11.6640   18.4880   18.9120 O.2    12  GLY12      -0.2714
     31  N         11.0810   19.6640   17.0940 N.am   13  HIS13      -0.1959
     32  CA        11.7520   18.7120   16.1630 C.3    13  HIS13       0.1787
     33  C         13.2430   18.6390   16.4070 C.2    13  HIS13       0.2620
     34  O         13.7830   17.5540   16.5680 O.2    13  HIS13      -0.2715
     35  CB        11.4130   19.0210   14.7030 C.3    13  HIS13       0.0785
     36  CG         9.9330   19.1020   14.4380 C.ar   13  HIS13       0.0821
     37  ND1        9.1840   20.2440   14.6870 N.ar   13  HIS13      -0.2267
     38  CD2        9.0660   18.1780   13.9540 C.ar   13  HIS13       0.1154
     39  CE1        7.9160   20.0150   14.3500 C.ar   13  HIS13       0.1986
     40  NE2        7.8170   18.7660   13.9190 N.ar   13  HIS13      -0.2212
     41  N         13.9140   19.7900   16.4720 N.am   14  ILE14      -0.1977
     42  CA        15.3520   19.8250   16.7440 C.3    14  ILE14       0.1596
     43  C         15.6090   19.3200   18.2040 C.2    14  ILE14       0.2287
     44  O         16.6100   18.6500   18.4940 O.2    14  ILE14      -0.2864
     45  CB        15.9120   21.2400   16.5130 C.3    14  ILE14       0.0276
     46  CG1       16.0420   21.5590   14.9960 C.3    14  ILE14       0.0022
     47  CG2       17.2680   21.3900   17.1970 C.3    14  ILE14       0.0022
     48  CD1       17.1540   20.7460   14.3300 C.3    14  ILE14       0.0001
     49  N         16.9410   24.6570   13.4160 N.3    76  PRO76      -0.2102
     50  CA        16.0450   24.4880   12.2980 C.3    76  PRO76       0.1504
     51  C         16.4340   25.5110   11.2110 C.2    76  PRO76       0.2576
     52  O         17.1530   26.5140   11.4940 O.2    76  PRO76      -0.2718
     53  CB        14.6970   24.8640   12.8790 C.3    76  PRO76       0.0282
     54  CG        15.0260   25.8660   13.9560 C.3    76  PRO76       0.0208
     55  CD        16.3510   25.4610   14.5120 C.3    76  PRO76       0.0893
     56  N         15.9980   25.2610    9.9790 N.am   77  THR77      -0.1939
     57  CA        16.3130   26.1800    8.8880 C.3    77  THR77       0.2028
     58  C         15.3340   27.3350    8.9030 C.2    77  THR77       0.2642
     59  O         14.1380   27.1320    9.2170 O.2    77  THR77      -0.2714
     60  CB        16.2630   25.4980    7.5050 C.3    77  THR77       0.1808
     61  OG1       16.8030   26.3790    6.5100 O.3    77  THR77      -0.2208
     62  CG2       14.8140   25.1490    7.1260 C.3    77  THR77       0.0379
     63  N         15.8540   28.5210    8.5650 N.am   78  ARG78      -0.1963
     64  CA        15.0820   29.7070    8.2550 C.3    78  ARG78       0.1729
     65  C         15.5730   30.0910    6.8650 C.2    78  ARG78       0.2616
     66  O         16.6260   30.7320    6.7220 O.2    78  ARG78      -0.2715
     67  CB        15.3760   30.8330    9.2590 C.3    78  ARG78       0.0348
     68  CG        14.9420   30.4120   10.6450 C.3    78  ARG78       0.0492
     69  CD        13.4000   30.5720   10.7930 C.3    78  ARG78       0.2205
     70  NE        12.9870   30.3780   12.1950 N.pl3  78  ARG78      -0.0865
     71  CZ        12.7100   29.1840   12.7020 C.cat  78  ARG78       0.5346
     72  NH1       12.8030   28.1150   11.9080 N.pl3  78  ARG78       0.1354
     73  NH2       12.3220   29.0710   13.9800 N.pl3  78  ARG78       0.1354
     74  N         14.8350   29.6730    5.8330 N.am   79  PHE79      -0.1960
     75  CA        15.2200   30.0140    4.4390 C.3    79  PHE79       0.1771
     76  C         16.6820   29.6580    4.1070 C.2    79  PHE79       0.2620
     77  O         17.4150   30.4720    3.5440 O.2    79  PHE79      -0.2715
     78  CB        14.9290   31.4910    4.1610 C.3    79  PHE79       0.0574
     79  CG        13.5040   31.9030    4.4230 C.ar   79  PHE79      -0.0200
     80  CD1       12.4260   31.2050    3.8370 C.ar   79  PHE79      -0.0042
     81  CD2       13.2300   32.9830    5.2760 C.ar   79  PHE79      -0.0042
     82  CE1       11.1000   31.6030    4.0750 C.ar   79  PHE79      -0.0003
     83  CE2       11.9120   33.3820    5.5230 C.ar   79  PHE79      -0.0003
     84  CZ        10.8600   32.7140    4.9230 C.ar   79  PHE79      -0.0000
     85  N         17.1220   28.4590    4.4760 N.am   80  GLY80      -0.1954
     86  CA        18.4440   27.9810    4.1340 C.3    80  GLY80       0.1869
     87  C         19.5730   28.5160    4.9730 C.2    80  GLY80       0.2309
     88  O         20.7100   28.3280    4.6430 O.2    80  GLY80      -0.2863
     89  N         16.7170   20.8150   10.6980 N.3   112  SER112     -0.1202
     90  CA        15.3120   20.4090   10.5180 C.3   112  SER112      0.2020
     91  C         14.7340   21.3720    9.5230 C.2   112  SER112      0.2619
     92  O         15.0820   22.5460    9.5600 O.2   112  SER112     -0.2717
     93  CB        14.5490   20.5920   11.8420 C.3   112  SER112      0.2103
     94  OG        13.2180   20.1380   11.6950 O.3   112  SER112     -0.2182
     95  N         13.8120   20.9110    8.6850 N.am  113  THR113     -0.1938
     96  CA        13.0980   21.8030    7.7720 C.3   113  THR113      0.2028
     97  C         11.6460   21.3120    7.6890 C.2   113  THR113      0.2643
     98  O         11.3270   20.1820    8.0930 O.2   113  THR113     -0.2714
     99  CB        13.6680   21.8060    6.2930 C.3   113  THR113      0.1808
    100  OG1       13.5400   20.4820    5.7870 O.3   113  THR113     -0.2208
    101  CG2       15.1280   22.1720    6.2430 C.3   113  THR113      0.0379
    102  N         10.7880   22.1860    7.1650 N.am  114  GLY114     -0.1939
    103  CA         9.3880   21.8640    6.9340 C.3   114  GLY114      0.2014
    104  C          9.2640   20.8200    5.8390 C.2   114  GLY114      0.2640
    105  O          8.6750   19.7600    6.0550 O.2   114  GLY114     -0.2714
    106  N          9.8120   21.1200    4.6650 N.am  115  THR115     -0.1936
    107  CA         9.6330   20.2640    3.4850 C.3   115  THR115      0.2028
    108  C         10.9470   19.8160    2.8550 C.2   115  THR115      0.2643
    109  O         10.9380   19.2630    1.7600 O.2   115  THR115     -0.2714
    110  CB         8.6600   20.8720    2.3980 C.3   115  THR115      0.1808
    111  OG1        9.0530   22.2110    2.0560 O.3   115  THR115     -0.2208
    112  CG2        7.2250   20.8880    2.8970 C.3   115  THR115      0.0379
    113  N         12.0720   20.0060    3.5460 N.am  116  GLY116     -0.1939
    114  CA        13.3670   19.5240    3.0030 C.3   116  GLY116      0.2014
    115  C         14.2910   20.5930    2.4030 C.2   116  GLY116      0.2639
    116  O         15.5320   20.4950    2.5480 O.2   116  GLY116     -0.2714
    117  N         13.7060   21.6070    1.7380 N.am  117  GLY117     -0.1954
    118  CA        14.4960   22.6090    1.0120 C.3   117  GLY117      0.1869
    119  C         15.2840   23.5050    1.9360 C.2   117  GLY117      0.2309
    120  O         14.7150   24.1050    2.8360 O.2   117  GLY117     -0.2863
    121  N          9.9520   17.9950    9.0340 N.3   165  ALA165     -0.1231
    122  CA         8.9470   18.2990   10.0500 C.3   165  ALA165      0.1694
    123  C          7.5210   18.3810    9.4770 C.2   165  ALA165      0.2592
    124  O          6.5470   18.4220   10.2480 O.2   165  ALA165     -0.2718
    125  CB         9.3140   19.6250   10.7330 C.3   165  ALA165      0.0304
    126  N          7.3960   18.3990    8.1430 N.am  166  GLY166     -0.1957
    127  CA         6.1240   18.7120    7.4830 C.3   166  GLY166      0.1869
    128  C          5.8140   20.2110    7.4220 C.2   166  GLY166      0.2309
    129  O          6.3090   21.0040    8.2460 O.2   166  GLY166     -0.2863
    130  N          4.3590   21.1640   10.6810 N.3   169  GLY169     -0.1225
    131  CA         5.0670   20.6420   11.8470 C.3   169  GLY169      0.1811
    132  C          4.5310   19.3330   12.3970 C.2   169  GLY169      0.2280
    133  O          4.9800   18.8810   13.4360 O.2   169  GLY169     -0.2866
@<TRIPOS>BOND
     1   118   117    1
     2   118   119    1
     3   117   115   am
     4   109   108    2
     5   119   120    2
     6   111   110    1
     7   110   112    1
     8   110   107    1
     9   115   116    2
    10   115   114    1
    11   108   107    1
    12   108   113   am
    13   114   113    1
    14   107   106    1
    15    77    76    2
    16    80    82   ar
    17    80    79   ar
    18    82    84   ar
    19    76    75    1
    20    76    85   am
    21    86    85    1
    22    86    87    1
    23    78    79    1
    24    78    75    1
    25    79    81   ar
    26    75    74    1
    27    88    87    2
    28   106   104   am
    29    84    83   ar
    30    81    83   ar
    31   100    99    1
    32    74    65   am
    33   104   105    2
    34   104   103    1
    35   101    99    1
    36    99    96    1
    37    61    60    1
    38    66    65    2
    39    65    64    1
    40   103   102    1
    41    62    60    1
    42   102    97   am
    43   128   127    1
    44   128   129    2
    45   127   126    1
    46    60    57    1
    47    97    96    1
    48    97    98    2
    49    96    95    1
    50   126   123   am
    51    64    63    1
    52    64    67    1
    53    63    58   am
    54    95    91   am
    55    57    58    1
    56    57    56    1
    57    58    59    2
    58   121   122    1
    59    67    68    1
    60   123   122    1
    61   123   124    2
    62    91    92    2
    63    91    90    1
    64    56    51   am
    65   122   125    1
    66    90    89    1
    67    90    93    1
    68    68    69    1
    69   130   131    1
    70    69    70    1
    71    51    52    2
    72    51    50    1
    73    94    93    1
    74   131   132    1
    75    72    71    1
    76    70    71    2
    77    50    53    1
    78    50    49    1
    79   132   133    2
    80    71    73    1
    81    53    54    1
    82    49    55    1
    83    40    38   ar
    84    40    39   ar
    85    38    36   ar
    86    54    55    1
    87    48    46    1
    88    39    37   ar
    89    36    37   ar
    90    36    35    1
    91    35    32    1
    92    23    21   ar
    93    23    25   ar
    94    46    45    1
    95    21    20   ar
    96    26    25    1
    97    25    24   ar
    98    32    33    1
    99    32    31    1
   100    20    19    1
   101    20    22   ar
   102    33    41   am
   103    33    34    2
   104    41    42    1
   105    45    42    1
   106    45    47    1
   107    13    12    1
   108    13    14    1
   109    42    43    1
   110    24    22   ar
   111    19    16    1
   112    31    29   am
   113    11    12    1
   114    11     8    1
   115    15    16    1
   116    15     9   am
   117     7     8    1
   118     7     3   am
   119    16    17    1
   120    43    44    2
   121     8     9    1
   122    29    30    2
   123    29    28    1
   124    18    17    2
   125    17    27   am
   126     6     5    1
   127     2     3    1
   128     2     1    1
   129     2     5    1
   130     9    10    2
   131    27    28    1
   132     3     4    2
