@<TRIPOS>MOLECULE
tmp/3b6jA01.pdb
 127 122 0 0 0
SMALL
GASTEIGER

@<TRIPOS>ATOM
      1  N         11.9570   25.6010   18.0510 N.3    10  MET10      -0.1230
      2  CA        10.6970   26.2860   18.3270 C.3    10  MET10       0.1702
      3  C          9.5530   25.3400   18.7110 C.2    10  MET10       0.2592
      4  O          8.8900   25.5460   19.7040 O.2    10  MET10      -0.2718
      5  CB        10.2880   27.1850   17.1490 C.3    10  MET10       0.0401
      6  CG         9.0440   28.0070   17.4580 C.3    10  MET10       0.0596
      7  SD         8.8880   29.6640   16.7270 S.3    10  MET10      -0.1393
      8  CE         7.4410   30.1390   17.6890 C.3    10  MET10       0.0692
      9  N          9.3390   24.3070   17.8980 N.am   11  TYR11      -0.1976
     10  CA         8.2360   23.3920   18.0870 C.3    11  TYR11       0.1639
     11  C          8.6750   21.9910   18.4800 C.2    11  TYR11       0.2290
     12  O          7.8360   21.0820   18.4790 O.2    11  TYR11      -0.2864
     13  CB         7.3940   23.3220   16.8000 C.3    11  TYR11       0.0560
     14  CG         6.8370   24.6620   16.3690 C.ar   11  TYR11      -0.0198
     15  CD1        7.3460   25.3250   15.2550 C.ar   11  TYR11      -0.0009
     16  CD2        5.8300   25.2940   17.1230 C.ar   11  TYR11      -0.0009
     17  CE1        6.8240   26.5630   14.8620 C.ar   11  TYR11       0.0417
     18  CE2        5.3120   26.5150   16.7520 C.ar   11  TYR11       0.0417
     19  CZ         5.8170   27.1470   15.6170 C.ar   11  TYR11       0.1957
     20  OH         5.3210   28.3580   15.2560 O.3    11  TYR11      -0.2866
     21  N         11.0810   19.6640   17.0940 N.3    13  HIS13      -0.1241
     22  CA        11.7520   18.7120   16.1630 C.3    13  HIS13       0.1621
     23  C         13.2430   18.6390   16.4070 C.2    13  HIS13       0.2264
     24  O         13.7830   17.5540   16.5680 O.2    13  HIS13      -0.2867
     25  CB        11.4130   19.0210   14.7030 C.3    13  HIS13       0.0745
     26  CG         9.9330   19.1020   14.4380 C.ar   13  HIS13       0.0817
     27  ND1        9.1840   20.2440   14.6870 N.ar   13  HIS13      -0.2268
     28  CD2        9.0660   18.1780   13.9540 C.ar   13  HIS13       0.1154
     29  CE1        7.9160   20.0150   14.3500 C.ar   13  HIS13       0.1986
     30  NE2        7.8170   18.7660   13.9190 N.ar   13  HIS13      -0.2212
     31  N         14.6860   34.5170   21.3840 N.3    41  THR41      -0.1203
     32  CA        14.8300   35.9640   21.1400 C.3    41  THR41       0.1994
     33  C         13.4790   36.6330   20.9640 C.2    41  THR41       0.2618
     34  O         13.3670   37.8430   21.1470 O.2    41  THR41      -0.2717
     35  CB        15.6990   36.2660   19.8780 C.3    41  THR41       0.1784
     36  OG1       15.0530   35.6820   18.7430 O.3    41  THR41      -0.2211
     37  CG2       17.1060   35.6900   20.0220 C.3    41  THR41       0.0376
     38  N         12.4660   35.8760   20.5550 N.am   42  MET42      -0.1965
     39  CA        11.1060   36.4200   20.3820 C.3    42  MET42       0.1721
     40  C         10.5440   36.9410   21.7000 C.2    42  MET42       0.2458
     41  O         10.8670   36.3930   22.7670 O.2    42  MET42      -0.2730
     42  CB        10.1340   35.3340   19.9020 C.3    42  MET42       0.0427
     43  CG        10.4040   34.8100   18.5140 C.3    42  MET42       0.0599
     44  SD         9.1950   33.5720   17.9840 S.3    42  MET42      -0.1393
     45  CE         7.6540   34.4800   17.9240 C.3    42  MET42       0.0692
     46  N          9.6270   37.9230   21.6330 N.am   43  PRO43      -0.2727
     47  CA         8.8690   38.2570   22.8690 C.3    43  PRO43       0.1402
     48  C          8.1620   36.9890   23.3780 C.2    43  PRO43       0.2269
     49  O          7.5960   36.2510   22.5880 O.2    43  PRO43      -0.2865
     50  CB         7.8520   39.2960   22.3960 C.3    43  PRO43       0.0296
     51  CG         8.4500   39.8570   21.1470 C.3    43  PRO43       0.0237
     52  CD         9.1720   38.7070   20.4760 C.3    43  PRO43       0.0939
     53  N          4.6430   36.2350   22.1380 N.3    46  LEU46      -0.1245
     54  CA         4.5410   35.8650   20.7300 C.3    46  LEU46       0.1561
     55  C          5.0340   34.4320   20.4870 C.2    46  LEU46       0.2260
     56  O          4.4440   33.6930   19.7020 O.2    46  LEU46      -0.2867
     57  CB         5.2400   36.9280   19.8280 C.3    46  LEU46       0.0270
     58  CG         4.6730   38.3880   19.9530 C.3    46  LEU46       0.0019
     59  CD1        5.3240   39.3330   18.9440 C.3    46  LEU46       0.0001
     60  CD2        3.1500   38.4830   19.7980 C.3    46  LEU46       0.0001
     61  N          2.0160   32.3690   21.7590 N.3    49  LYS49      -0.1231
     62  CA         0.8600   32.5070   20.8610 C.3    49  LYS49       0.1693
     63  C          1.0340   31.7900   19.5120 C.2    49  LYS49       0.2592
     64  O          0.0570   31.3770   18.9000 O.2    49  LYS49      -0.2718
     65  CB         0.4930   33.9830   20.6790 C.3    49  LYS49       0.0285
     66  CG        -0.3170   34.5260   21.8820 C.3    49  LYS49       0.0035
     67  CD        -0.5460   36.0270   21.8160 C.3    49  LYS49       0.0206
     68  CE        -1.6780   36.4110   22.7370 C.3    49  LYS49       0.1093
     69  NZ        -2.0490   37.8350   22.6550 N.3    49  LYS49      -0.1314
     70  N          2.2850   31.6300   19.0570 N.am   50  ALA50      -0.1966
     71  CA         2.5880   30.8660   17.8390 C.3    50  ALA50       0.1728
     72  C          2.5880   29.3740   18.1080 C.2    50  ALA50       0.2616
     73  O          2.6240   28.5610   17.1810 O.2    50  ALA50      -0.2715
     74  CB         3.9450   31.3050   17.2730 C.3    50  ALA50       0.0334
     75  N          2.5700   28.9780   19.3760 N.am   51  GLY51      -0.1955
     76  CA         2.6080   27.5670   19.7130 C.3    51  GLY51       0.1869
     77  C          3.9780   27.0160   20.0410 C.2    51  GLY51       0.2309
     78  O          4.1750   25.7950   20.0170 O.2    51  GLY51      -0.2863
     79  N         15.8540   28.5210    8.5650 N.3    78  ARG78      -0.1245
     80  CA        15.0820   29.7070    8.2550 C.3    78  ARG78       0.1563
     81  C         15.5730   30.0910    6.8650 C.2    78  ARG78       0.2260
     82  O         16.6260   30.7320    6.7220 O.2    78  ARG78      -0.2867
     83  CB        15.3760   30.8330    9.2590 C.3    78  ARG78       0.0307
     84  CG        14.9420   30.4120   10.6450 C.3    78  ARG78       0.0489
     85  CD        13.4000   30.5720   10.7930 C.3    78  ARG78       0.2205
     86  NE        12.9870   30.3780   12.1950 N.pl3  78  ARG78      -0.0865
     87  CZ        12.7100   29.1840   12.7020 C.cat  78  ARG78       0.5346
     88  NH1       12.8030   28.1150   11.9080 N.pl3  78  ARG78       0.1354
     89  NH2       12.3220   29.0710   13.9800 N.pl3  78  ARG78       0.1354
     90  N         17.5740   32.8510   13.5020 N.3    84  GLY84      -0.1210
     91  CA        17.9250   34.1080   14.1790 C.3    84  GLY84       0.1956
     92  C         18.4330   33.9120   15.6040 C.2    84  GLY84       0.2611
     93  O         19.4010   34.5980   16.0440 O.2    84  GLY84      -0.2717
     94  N         17.8100   32.9780   16.3250 N.am   85  GLN85      -0.1979
     95  CA        18.1610   32.6950   17.7390 C.3    85  GLN85       0.1601
     96  C         19.5710   32.1530   17.8580 C.2    85  GLN85       0.2287
     97  O         20.3640   32.6340   18.6800 O.2    85  GLN85      -0.2864
     98  CB        17.1090   31.7770   18.4200 C.3    85  GLN85       0.0394
     99  CG        15.7430   32.4160   18.5240 C.3    85  GLN85       0.0908
    100  CD        14.8130   32.1390   17.3220 C.2    85  GLN85       0.2608
    101  OE1       13.5940   32.2950   17.4180 O.2    85  GLN85      -0.2717
    102  NE2       15.3720   31.7030   16.2170 N.am   85  GLN85      -0.0878
    103  N          9.9520   17.9950    9.0340 N.3   165  ALA165     -0.1231
    104  CA         8.9470   18.2990   10.0500 C.3   165  ALA165      0.1694
    105  C          7.5210   18.3810    9.4770 C.2   165  ALA165      0.2593
    106  O          6.5470   18.4220   10.2480 O.2   165  ALA165     -0.2718
    107  CB         9.3140   19.6250   10.7330 C.3   165  ALA165      0.0304
    108  N          7.3960   18.3990    8.1430 N.am  166  GLY166     -0.1942
    109  CA         6.1240   18.7120    7.4830 C.3   166  GLY166      0.2014
    110  C          5.8140   20.2110    7.4220 C.2   166  GLY166      0.2639
    111  O          6.3090   21.0040    8.2460 O.2   166  GLY166     -0.2714
    112  N          4.9700   20.6040    6.4650 N.am  167  GLY167     -0.1939
    113  CA         4.5750   22.0200    6.2700 C.3   167  GLY167      0.2014
    114  C          4.0090   22.6750    7.5170 C.2   167  GLY167      0.2639
    115  O          4.2660   23.8580    7.8040 O.2   167  GLY167     -0.2714
    116  N          3.2570   21.8840    8.2770 N.am  168  ASP168     -0.1957
    117  CA         2.6050   22.3580    9.4890 C.3   168  ASP168      0.1840
    118  C          3.2290   21.8640   10.7860 C.2   168  ASP168      0.2622
    119  O          2.6660   22.1010   11.8580 O.2   168  ASP168     -0.2715
    120  CB         1.1230   21.9870    9.4660 C.3   168  ASP168      0.1450
    121  CG         0.8730   20.4980    9.2760 C.2   168  ASP168      0.3671
    122  OD1        1.8290   19.6690    9.2930 O.co2 168  ASP168     -0.2456
    123  OD2       -0.3300   20.1600    9.1160 O.co2 168  ASP168     -0.2456
    124  N          4.3590   21.1640   10.6810 N.am  169  GLY169     -0.1954
    125  CA         5.0670   20.6420   11.8470 C.3   169  GLY169      0.1869
    126  C          4.5310   19.3330   12.3970 C.2   169  GLY169      0.2309
    127  O          4.9800   18.8810   13.4360 O.2   169  GLY169     -0.2863
@<TRIPOS>BOND
     1   113   112    1
     2   113   114    1
     3   112   110   am
     4    82    81    2
     5    81    80    1
     6   110   109    1
     7   110   111    2
     8   109   108    1
     9   114   115    2
    10   114   116   am
    11   108   105   am
    12    80    79    1
    13    80    83    1
    14   116   117    1
    15   103   104    1
    16   123   121   ar
    17    83    84    1
    18   121   122   ar
    19   121   120    1
    20   120   117    1
    21   105   104    1
    22   105   106    2
    23   117   118    1
    24   104   107    1
    25    84    85    1
    26   124   118   am
    27   124   125    1
    28   118   119    2
    29    85    86    1
    30   125   126    1
    31    88    87    1
    32    86    87    2
    33   126   127    2
    34    87    89    1
    35    90    91    1
    36    30    28   ar
    37    30    29   ar
    38    28    26   ar
    39    91    92    1
    40    29    27   ar
    41    26    27   ar
    42    26    25    1
    43    25    22    1
    44    17    15   ar
    45    17    19   ar
    46    15    14   ar
    47    20    19    1
    48    92    93    2
    49    92    94   am
    50    19    18   ar
    51    22    23    1
    52    22    21    1
    53   102   100   am
    54    94    95    1
    55    14    13    1
    56    14    16   ar
    57    23    24    2
    58     7     6    1
    59     7     8    1
    60    18    16   ar
    61    13    10    1
    62     5     6    1
    63     5     2    1
    64    73    72    2
    65    74    71    1
    66   100   101    2
    67   100    99    1
    68    95    96    1
    69    95    98    1
    70    71    72    1
    71    71    70    1
    72    96    97    2
    73     9    10    1
    74     9     3   am
    75    45    44    1
    76    44    43    1
    77     1     2    1
    78    10    11    1
    79    72    75   am
    80     2     3    1
    81    98    99    1
    82    12    11    2
    83    43    42    1
    84     3     4    2
    85    36    35    1
    86    64    63    2
    87    59    58    1
    88    70    63   am
    89    75    76    1
    90    63    62    1
    91    56    55    2
    92    76    77    1
    93    60    58    1
    94    57    58    1
    95    57    54    1
    96    35    37    1
    97    35    32    1
    98    42    39    1
    99    78    77    2
   100    39    38    1
   101    39    40    1
   102    52    51    1
   103    52    46    1
   104    55    54    1
   105    38    33   am
   106    65    62    1
   107    65    66    1
   108    54    53    1
   109    62    61    1
   110    33    32    1
   111    33    34    2
   112    32    31    1
   113    51    50    1
   114    46    40   am
   115    46    47    1
   116    40    41    2
   117    67    66    1
   118    67    68    1
   119    50    47    1
   120    49    48    2
   121    69    68    1
   122    47    48    1
