@<TRIPOS>MOLECULE
tmp/3b6lA00.pdb
 102 100 0 0 0
SMALL
GASTEIGER

@<TRIPOS>ATOM
      1  N         21.9060   46.2460   55.2500 N.3    60  SER60      -0.1217
      2  CA        22.9900   46.4030   56.2360 C.3    60  SER60       0.1889
      3  C         22.4560   46.6390   57.6390 C.2    60  SER60       0.2288
      4  O         23.2080   46.4970   58.6260 O.2    60  SER60      -0.2866
      5  CB        23.9240   47.5370   55.8690 C.3    60  SER60       0.2089
      6  OG        23.2650   48.7780   55.8370 O.3    60  SER60      -0.2183
      7  N         24.6600   42.5630   57.4790 N.3    64  CYS64      -0.1221
      8  CA        26.0520   42.8160   57.0700 C.3    64  CYS64       0.1808
      9  C         26.5990   44.1210   57.6410 C.2    64  CYS64       0.2601
     10  O         25.8220   45.0180   57.9780 O.2    64  CYS64      -0.2717
     11  CB        26.1830   42.6960   55.5500 C.3    64  CYS64       0.0970
     12  SG        25.3850   43.9380   54.5410 S.3    64  CYS64      -0.0800
     13  N         27.9190   44.1950   57.7800 N.am   65  ASN65      -0.1960
     14  CA        28.6030   45.4050   58.2360 C.3    65  ASN65       0.1819
     15  C         29.1440   46.2010   57.0670 C.2    65  ASN65       0.2621
     16  O         29.9540   45.6700   56.3000 O.2    65  ASN65      -0.2715
     17  CB        29.7630   45.0860   59.1930 C.3    65  ASN65       0.1195
     18  CG        30.5140   46.3530   59.6230 C.2    65  ASN65       0.2630
     19  OD1       30.1890   46.9700   60.6280 O.2    65  ASN65      -0.2716
     20  ND2       31.5080   46.7570   58.8550 N.am   65  ASN65      -0.0877
     21  N         28.7170   47.4470   56.9520 N.am   66  ASP66      -0.1957
     22  CA        29.2710   48.3790   55.9600 C.3    66  ASP66       0.1840
     23  C         29.9040   49.6310   56.6010 C.2    66  ASP66       0.2623
     24  O         30.5420   50.4510   55.9250 O.2    66  ASP66      -0.2715
     25  CB        28.2100   48.8080   54.9470 C.3    66  ASP66       0.1450
     26  CG        27.0800   49.6480   55.5680 C.2    66  ASP66       0.3671
     27  OD1       27.0920   49.8780   56.7930 O.co2  66  ASP66      -0.2456
     28  OD2       26.1700   50.1070   54.8240 O.co2  66  ASP66      -0.2456
     29  N         29.7040   49.8170   57.8980 N.am   67  GLY67      -0.1940
     30  CA        30.4330   50.8510   58.6110 C.3    67  GLY67       0.2014
     31  C         29.7340   52.1780   58.5990 C.2    67  GLY67       0.2639
     32  O         30.3010   53.1690   59.0460 O.2    67  GLY67      -0.2714
     33  N         28.5020   52.1970   58.1000 N.am   68  ARG68      -0.1963
     34  CA        27.7670   53.4520   57.9940 C.3    68  ARG68       0.1729
     35  C         26.3000   53.2790   58.3600 C.2    68  ARG68       0.2617
     36  O         25.4890   54.1670   58.0730 O.2    68  ARG68      -0.2715
     37  CB        27.9030   54.0750   56.6050 C.3    68  ARG68       0.0348
     38  CG        27.3730   53.2770   55.4230 C.3    68  ARG68       0.0492
     39  CD        27.0470   54.2240   54.2740 C.3    68  ARG68       0.2205
     40  NE        26.4890   53.5170   53.1460 N.pl3  68  ARG68      -0.0865
     41  CZ        26.1640   54.0220   51.9630 C.cat  68  ARG68       0.5346
     42  NH1       25.6860   53.2160   51.0430 N.pl3  68  ARG68       0.1354
     43  NH2       26.3080   55.3150   51.6820 N.pl3  68  ARG68       0.1354
     44  N         25.9710   52.1540   58.9950 N.am   69  THR69      -0.1937
     45  CA        24.6120   51.9460   59.4960 C.3    69  THR69       0.2013
     46  C         24.5780   51.9040   61.0160 C.2    69  THR69       0.2484
     47  O         24.4980   50.8190   61.6030 O.2    69  THR69      -0.2729
     48  CB        23.9760   50.6540   58.9730 C.3    69  THR69       0.1807
     49  OG1       24.2650   50.4970   57.5820 O.3    69  THR69      -0.2208
     50  CG2       22.4640   50.6820   59.1900 C.3    69  THR69       0.0379
     51  N         24.6420   53.0760   61.6650 N.am   70  PRO70      -0.2715
     52  CA        24.6570   53.1200   63.1400 C.3    70  PRO70       0.1536
     53  C         23.5530   52.2880   63.7690 C.2    70  PRO70       0.2599
     54  O         22.4410   52.2070   63.2240 O.2    70  PRO70      -0.2715
     55  CB        24.4610   54.6080   63.4430 C.3    70  PRO70       0.0310
     56  CG        25.1270   55.2800   62.2770 C.3    70  PRO70       0.0237
     57  CD        24.7340   54.4280   61.0820 C.3    70  PRO70       0.0939
     58  N         23.8890   51.6550   64.8870 N.am   71  GLY71      -0.1941
     59  CA        22.9830   50.7870   65.6200 C.3    71  GLY71       0.2014
     60  C         22.5780   49.4880   64.9430 C.2    71  GLY71       0.2640
     61  O         21.8450   48.6830   65.5290 O.2    71  GLY71      -0.2714
     62  N         23.0150   49.2890   63.7010 N.am   72  SER72      -0.1935
     63  CA        22.6980   48.0680   62.9680 C.3    72  SER72       0.2055
     64  C         23.4400   46.8320   63.4950 C.2    72  SER72       0.2643
     65  O         24.4230   46.9380   64.2420 O.2    72  SER72      -0.2714
     66  CB        23.0740   48.2410   61.5000 C.3    72  SER72       0.2130
     67  OG        24.4770   48.4390   61.4480 O.3    72  SER72      -0.2179
     68  N         22.9520   45.6750   63.0580 N.am   73  ARG73      -0.1963
     69  CA        23.4890   44.3830   63.4030 C.3    73  ARG73       0.1729
     70  C         24.2020   43.7920   62.1990 C.2    73  ARG73       0.2616
     71  O         24.0080   44.2690   61.0770 O.2    73  ARG73      -0.2715
     72  CB        22.3500   43.4520   63.8380 C.3    73  ARG73       0.0348
     73  CG        21.7480   43.7960   65.1640 C.3    73  ARG73       0.0492
     74  CD        22.3320   42.8890   66.2260 C.3    73  ARG73       0.2205
     75  NE        23.4440   43.5160   66.9380 N.pl3  73  ARG73      -0.0865
     76  CZ        24.2550   42.8540   67.7600 C.cat  73  ARG73       0.5346
     77  NH1       25.2410   43.4840   68.3900 N.pl3  73  ARG73       0.1354
     78  NH2       24.0710   41.5520   67.9390 N.pl3  73  ARG73       0.1354
     79  N         25.0010   42.7580   62.4190 N.am   74  ASN74      -0.1958
     80  CA        25.7240   42.0830   61.3300 C.3    74  ASN74       0.1819
     81  C         25.5230   40.5830   61.4340 C.2    74  ASN74       0.2621
     82  O         26.4810   39.8770   61.6520 O.2    74  ASN74      -0.2715
     83  CB        27.2030   42.4210   61.4180 C.3    74  ASN74       0.1195
     84  CG        28.1240   41.7340   60.4040 C.2    74  ASN74       0.2630
     85  OD1       29.3500   41.8500   60.5360 O.2    74  ASN74      -0.2716
     86  ND2       27.5870   41.0470   59.3940 N.am   74  ASN74      -0.0877
     87  N         24.2920   40.1190   61.2980 N.am   75  LEU75      -0.1977
     88  CA        23.8780   38.7340   61.6110 C.3    75  LEU75       0.1596
     89  C         24.5150   37.6140   60.8130 C.2    75  LEU75       0.2287
     90  O         24.6590   36.5140   61.3560 O.2    75  LEU75      -0.2864
     91  CB        22.3530   38.5770   61.4810 C.3    75  LEU75       0.0297
     92  CG        21.5080   38.8610   62.7250 C.3    75  LEU75       0.0022
     93  CD1       22.3570   38.7360   63.9750 C.3    75  LEU75       0.0001
     94  CD2       20.8700   40.2330   62.6060 C.3    75  LEU75       0.0001
     95  N         27.5330   37.4870   59.8760 N.3    77  ASN77      -0.1240
     96  CA        28.9510   37.7290   60.1540 C.3    77  ASN77       0.1653
     97  C         29.7900   38.0980   58.9620 C.2    77  ASN77       0.2266
     98  O         30.7720   37.4130   58.6560 O.2    77  ASN77      -0.2867
     99  CB        29.5720   36.5160   60.8870 C.3    77  ASN77       0.1155
    100  CG        28.7750   36.1800   62.1400 C.2    77  ASN77       0.2627
    101  OD1       28.3600   35.0390   62.3440 O.2    77  ASN77      -0.2716
    102  ND2       28.5410   37.1900   62.9660 N.am   77  ASN77      -0.0877
@<TRIPOS>BOND
     1    42    41    1
     2    43    41    1
     3    41    40    2
     4    40    39    1
     5    39    38    1
     6    12    11    1
     7    28    26   ar
     8    25    26    1
     9    25    22    1
    10     1     2    1
    11    38    37    1
    12    11     8    1
    13    26    27   ar
    14     6     5    1
    15     5     2    1
    16    24    23    2
    17    22    23    1
    18    22    21    1
    19     2     3    1
    20    16    15    2
    21    23    29   am
    22    37    34    1
    23    21    15   am
    24    15    14    1
    25     8     7    1
    26     8     9    1
    27    49    48    1
    28     3     4    2
    29     9    13   am
    30     9    10    2
    31    13    14    1
    32    29    30    1
    33    34    33    1
    34    34    35    1
    35    36    35    2
    36    33    31   am
    37    14    17    1
    38    35    44   am
    39    31    30    1
    40    31    32    2
    41    98    97    2
    42    20    18   am
    43    97    96    1
    44    48    50    1
    45    48    45    1
    46    44    45    1
    47    17    18    1
    48    86    84   am
    49    45    46    1
    50    18    19    2
    51    95    96    1
    52    96    99    1
    53    84    85    2
    54    84    83    1
    55    89    90    2
    56    89    88    1
    57    99   100    1
    58    46    47    2
    59    46    51   am
    60    71    70    2
    61    57    51    1
    62    57    56    1
    63    87    81   am
    64    87    88    1
    65    80    83    1
    66    80    81    1
    67    80    79    1
    68    81    82    2
    69    67    66    1
    70    91    88    1
    71    91    92    1
    72    66    63    1
    73    51    52    1
    74   100   101    2
    75   100   102   am
    76    70    79   am
    77    70    69    1
    78    56    55    1
    79    94    92    1
    80    92    93    1
    81    63    64    1
    82    63    62    1
    83    68    69    1
    84    68    64   am
    85    52    55    1
    86    52    53    1
    87    54    53    2
    88    69    72    1
    89    64    65    2
    90    62    60   am
    91    53    58   am
    92    72    73    1
    93    58    59    1
    94    60    61    2
    95    60    59    1
    96    73    74    1
    97    74    75    1
    98    75    76    2
    99    76    78    1
   100    76    77    1
