@<TRIPOS>MOLECULE
tmp/3b6rB01.pdb
 141 130 0 0 0
SMALL
GASTEIGER

@<TRIPOS>ATOM
      1  N        -63.7590   -4.4760   13.9860 N.3    61  HIS61      -0.1241
      2  CA       -62.8280   -3.4980   14.5110 C.3    61  HIS61       0.1621
      3  C        -63.6190   -2.6940   15.5380 C.2    61  HIS61       0.2264
      4  O        -64.8060   -2.4380   15.3500 O.2    61  HIS61      -0.2867
      5  CB       -62.3150   -2.6080   13.3750 C.3    61  HIS61       0.0745
      6  CG       -61.2570   -1.6380   13.7970 C.ar   61  HIS61       0.0817
      7  ND1      -61.5490   -0.4320   14.4000 N.ar   61  HIS61      -0.2268
      8  CD2      -59.9060   -1.7050   13.7210 C.ar   61  HIS61       0.1154
      9  CE1      -60.4230    0.2010   14.6770 C.ar   61  HIS61       0.1986
     10  NE2      -59.4120   -0.5490   14.2760 N.ar   61  HIS61      -0.2212
     11  N        -64.0830    1.3840   13.6210 N.3    64  ILE64      -0.1231
     12  CA       -64.5270    1.6320   12.2490 C.3    64  ILE64       0.1692
     13  C        -64.9010    0.3710   11.4720 C.2    64  ILE64       0.2592
     14  O        -64.6080   -0.7470   11.8910 O.2    64  ILE64      -0.2718
     15  CB       -63.4360    2.3600   11.4250 C.3    64  ILE64       0.0266
     16  CG1      -62.2230    1.4410   11.2530 C.3    64  ILE64       0.0019
     17  CG2      -63.0140    3.6530   12.1280 C.3    64  ILE64       0.0020
     18  CD1      -61.2090    1.9420   10.2480 C.3    64  ILE64       0.0001
     19  N        -65.5630    0.5730   10.3360 N.am   65  MET65      -0.1965
     20  CA       -65.9470   -0.5210    9.4560 C.3    65  MET65       0.1736
     21  C        -64.6940   -0.7630    8.6210 C.2    65  MET65       0.2617
     22  O        -64.1610    0.1700    8.0230 O.2    65  MET65      -0.2715
     23  CB       -67.1140   -0.0980    8.5560 C.3    65  MET65       0.0427
     24  CG       -67.4640   -1.1090    7.4770 C.3    65  MET65       0.0599
     25  SD       -67.9520   -2.7130    8.1450 S.3    65  MET65      -0.1393
     26  CE       -68.8710   -3.3830    6.7560 C.3    65  MET65       0.0692
     27  N        -64.2120   -2.0000    8.5960 N.am   66  THR66      -0.1937
     28  CA       -63.0030   -2.3210    7.8450 C.3    66  THR66       0.2028
     29  C        -63.2720   -2.9800    6.5000 C.2    66  THR66       0.2642
     30  O        -64.3230   -3.5810    6.2830 O.2    66  THR66      -0.2714
     31  CB       -62.0650   -3.2380    8.6650 C.3    66  THR66       0.1808
     32  OG1      -62.7320   -4.4670    8.9780 O.3    66  THR66      -0.2208
     33  CG2      -61.6550   -2.5480    9.9560 C.3    66  THR66       0.0379
     34  N        -62.2960   -2.8660    5.6040 N.am   67  VAL67      -0.1963
     35  CA       -62.3860   -3.4300    4.2660 C.3    67  VAL67       0.1727
     36  C        -62.2570   -4.9540    4.2620 C.2    67  VAL67       0.2616
     37  O        -62.9770   -5.6370    3.5420 O.2    67  VAL67      -0.2715
     38  CB       -61.3080   -2.8150    3.3460 C.3    67  VAL67       0.0290
     39  CG1      -61.3100   -3.5110    2.0060 C.3    67  VAL67       0.0023
     40  CG2      -61.5810   -1.3320    3.1540 C.3    67  VAL67       0.0023
     41  N        -61.3320   -5.4850    5.0530 N.am   68  GLY68      -0.1955
     42  CA       -61.1730   -6.9320    5.1210 C.3    68  GLY68       0.1869
     43  C        -60.3750   -7.6010    4.0110 C.2    68  GLY68       0.2309
     44  O        -60.4950   -8.8030    3.7960 O.2    68  GLY68      -0.2863
     45  N        -67.6630    0.6130   -0.1100 N.3    91  ARG91      -0.1245
     46  CA       -66.8450    1.4530    0.7620 C.3    91  ARG91       0.1563
     47  C        -66.8180    2.9300    0.3720 C.2    91  ARG91       0.2260
     48  O        -66.7280    3.7990    1.2450 O.2    91  ARG91      -0.2867
     49  CB       -65.4120    0.9110    0.8170 C.3    91  ARG91       0.0307
     50  CG       -64.4480    1.7540    1.6450 C.3    91  ARG91       0.0489
     51  CD       -64.8800    1.8560    3.0980 C.3    91  ARG91       0.2205
     52  NE       -63.9400    2.6340    3.9080 N.pl3  91  ARG91      -0.0865
     53  CZ       -63.7940    3.9540    3.8350 C.cat  91  ARG91       0.5346
     54  NH1      -64.5250    4.6640    2.9870 N.pl3  91  ARG91       0.1354
     55  NH2      -62.9210    4.5670    4.6200 N.pl3  91  ARG91       0.1354
     56  N        -54.8960   -5.3140   11.2400 N.3   196  LEU196     -0.1245
     57  CA       -54.8300   -5.4130    9.7870 C.3   196  LEU196      0.1561
     58  C        -53.3750   -5.5660    9.3910 C.2   196  LEU196      0.2260
     59  O        -53.0170   -6.4130    8.5770 O.2   196  LEU196     -0.2867
     60  CB       -55.3790   -4.1420    9.1360 C.3   196  LEU196      0.0270
     61  CG       -54.9690   -3.9240    7.6730 C.3   196  LEU196      0.0019
     62  CD1      -55.6600   -4.9430    6.7790 C.3   196  LEU196      0.0001
     63  CD2      -55.3310   -2.5140    7.2450 C.3   196  LEU196      0.0001
     64  N        -47.6660    1.1630    6.0030 N.3   227  GLU227     -0.1245
     65  CA       -48.7940    0.5000    5.3390 C.3   227  GLU227      0.1567
     66  C        -48.7340    0.6660    3.8170 C.2   227  GLU227      0.2260
     67  O        -49.3580   -0.0910    3.0740 O.2   227  GLU227     -0.2867
     68  CB       -50.1360    1.0360    5.8450 C.3   227  GLU227      0.0388
     69  CG       -51.3230    0.2690    5.2620 C.3   227  GLU227      0.1160
     70  CD       -52.6680    0.7870    5.7360 C.2   227  GLU227      0.3649
     71  OE1      -52.8080    1.0430    6.9490 O.co2 227  GLU227     -0.2457
     72  OE2      -53.5870    0.9220    4.8970 O.co2 227  GLU227     -0.2457
     73  N        -46.3010    7.5750    2.6250 N.3   231  ARG231     -0.1245
     74  CA       -47.4390    8.2480    3.2270 C.3   231  ARG231      0.1563
     75  C        -46.9480    9.6880    3.3680 C.2   231  ARG231      0.2260
     76  O        -46.0460    9.9730    4.1610 O.2   231  ARG231     -0.2867
     77  CB       -47.7900    7.6620    4.6010 C.3   231  ARG231      0.0307
     78  CG       -48.6110    6.3810    4.5440 C.3   231  ARG231      0.0489
     79  CD       -49.9210    6.5790    3.7720 C.3   231  ARG231      0.2205
     80  NE       -50.7360    5.3640    3.7470 N.pl3 231  ARG231     -0.0865
     81  CZ       -51.6430    5.0430    4.6670 C.cat 231  ARG231      0.5346
     82  NH1      -51.8700    5.8500    5.6950 N.pl3 231  ARG231      0.1354
     83  NH2      -52.3130    3.9020    4.5680 N.pl3 231  ARG231      0.1354
     84  N        -54.7330   -0.7300    0.8620 N.3   278  CYS278     -0.1235
     85  CA       -56.1210   -0.9060    1.2550 C.3   278  CYS278      0.1677
     86  C        -57.0790   -0.1580    0.3380 C.2   278  CYS278      0.2270
     87  O        -56.9360    1.0410    0.1110 O.2   278  CYS278     -0.2867
     88  CB       -56.3110   -0.4370    2.7000 C.3   278  CYS278      0.0956
     89  SG       -58.0240   -0.4890    3.2990 S.3   278  CYS278     -0.0801
     90  N        -59.7300    1.1440    0.7390 N.3   280  SER280     -0.1202
     91  CA       -60.3120    2.3340    1.3470 C.3   280  SER280      0.2020
     92  C        -59.4890    3.5760    1.0410 C.2   280  SER280      0.2618
     93  O        -59.9860    4.6950    1.1420 O.2   280  SER280     -0.2717
     94  CB       -60.4250    2.1620    2.8680 C.3   280  SER280      0.2103
     95  OG       -59.1580    2.2680    3.4980 O.3   280  SER280     -0.2182
     96  N        -58.2330    3.3780    0.6560 N.am  281  ASN281     -0.1974
     97  CA       -57.3550    4.5010    0.3600 C.3   281  ASN281      0.1688
     98  C        -57.1260    4.7910   -1.1130 C.2   281  ASN281      0.2292
     99  O        -56.1750    5.4890   -1.4620 O.2   281  ASN281     -0.2864
    100  CB       -56.0040    4.2830    1.0310 C.3   281  ASN281      0.1181
    101  CG       -56.0590    4.4870    2.5270 C.2   281  ASN281      0.2629
    102  OD1      -55.4670    3.7190    3.2910 O.2   281  ASN281     -0.2716
    103  ND2      -56.7590    5.5300    2.9540 N.am  281  ASN281     -0.0877
    104  N        -65.5480   10.8320    8.9900 N.3   313  GLN313     -0.1245
    105  CA       -65.2860    9.6890    9.8610 C.3   313  GLN313      0.1566
    106  C        -64.5970   10.1750   11.1390 C.2   313  GLN313      0.2260
    107  O        -63.8320   11.1420   11.1100 O.2   313  GLN313     -0.2867
    108  CB       -64.3830    8.6680    9.1530 C.3   313  GLN313      0.0367
    109  CG       -64.1350    7.3880    9.9620 C.3   313  GLN313      0.0905
    110  CD       -63.0380    6.5090    9.3720 C.2   313  GLN313      0.2608
    111  OE1      -61.8710    6.9030    9.3190 O.2   313  GLN313     -0.2717
    112  NE2      -63.4100    5.3150    8.9260 N.am  313  GLN313     -0.0878
    113  N        -62.1670    9.2630   14.5690 N.3   315  ARG315     -0.1245
    114  CA       -61.1560    8.3490   15.0780 C.3   315  ARG315      0.1563
    115  C        -60.6820    8.8330   16.4420 C.2   315  ARG315      0.2260
    116  O        -61.0490    9.9260   16.8890 O.2   315  ARG315     -0.2867
    117  CB       -59.9600    8.2790   14.1210 C.3   315  ARG315      0.0307
    118  CG       -60.3080    7.8260   12.7120 C.3   315  ARG315      0.0489
    119  CD       -59.0650    7.6770   11.8530 C.3   315  ARG315      0.2205
    120  NE       -59.3820    7.0960   10.5540 N.pl3 315  ARG315     -0.0865
    121  CZ       -58.4710    6.6710    9.6850 C.cat 315  ARG315      0.5346
    122  NH1      -57.1790    6.7630    9.9770 N.pl3 315  ARG315      0.1354
    123  NH2      -58.8520    6.1500    8.5250 N.pl3 315  ARG315      0.1354
    124  N        -56.7740    5.6390   14.2590 N.3   320  VAL320     -0.1245
    125  CA       -57.8710    4.7190   13.9960 C.3   320  VAL320      0.1561
    126  C        -57.9870    3.5560   14.9850 C.2   320  VAL320      0.2260
    127  O        -59.0880    3.0630   15.2490 O.2   320  VAL320     -0.2867
    128  CB       -57.7500    4.1450   12.5690 C.3   320  VAL320      0.0252
    129  CG1      -56.4810    3.3080   12.4500 C.3   320  VAL320      0.0019
    130  CG2      -58.9750    3.3250   12.2350 C.3   320  VAL320      0.0019
    131  N        -62.6130    8.7130   -0.3260 N.3   336  ARG336     -0.1245
    132  CA       -61.3940    9.1660   -0.9840 C.3   336  ARG336      0.1563
    133  C        -61.3930    8.9570   -2.4950 C.2   336  ARG336      0.2260
    134  O        -60.5030    9.4450   -3.1920 O.2   336  ARG336     -0.2867
    135  CB       -60.1850    8.4440   -0.3730 C.3   336  ARG336      0.0307
    136  CG       -60.2780    8.2530    1.1370 C.3   336  ARG336      0.0489
    137  CD       -58.9090    8.0270    1.7680 C.3   336  ARG336      0.2205
    138  NE       -59.0150    7.4830    3.1220 N.pl3 336  ARG336     -0.0865
    139  CZ       -59.7160    8.0330    4.1120 C.cat 336  ARG336      0.5346
    140  NH1      -60.3890    9.1620    3.9250 N.pl3 336  ARG336      0.1354
    141  NH2      -59.7570    7.4360    5.2950 N.pl3 336  ARG336      0.1354
@<TRIPOS>BOND
     1   134   133    2
     2   133   132    1
     3    99    98    2
     4    98    97    1
     5   132   135    1
     6   132   131    1
     7   135   136    1
     8    45    46    1
     9    87    86    2
    10    86    85    1
    11    97    96    1
    12    97   100    1
    13    47    46    1
    14    47    48    2
    15    96    92   am
    16    90    91    1
    17    46    49    1
    18    49    50    1
    19    84    85    1
    20   100   101    1
    21    92    93    2
    22    92    91    1
    23   136   137    1
    24    85    88    1
    25    91    94    1
    26    50    51    1
    27   137   138    1
    28    39    38    1
    29   101   103   am
    30   101   102    2
    31    73    74    1
    32    88    89    1
    33    94    95    1
    34    54    53    1
    35    67    66    2
    36    51    52    1
    37   138   139    2
    38    40    38    1
    39    74    75    1
    40    74    77    1
    41    38    35    1
    42    75    76    2
    43    37    36    2
    44    80    79    1
    45    80    81    2
    46    79    78    1
    47    44    43    2
    48    66    65    1
    49    53    52    2
    50    53    55    1
    51   140   139    1
    52    43    42    1
    53   139   141    1
    54    36    35    1
    55    36    41   am
    56    35    34    1
    57    78    77    1
    58    83    81    1
    59    81    82    1
    60    72    70   ar
    61    41    42    1
    62    69    70    1
    63    69    68    1
    64    65    68    1
    65    65    64    1
    66    34    29   am
    67    70    71   ar
    68    30    29    2
    69    29    28    1
    70    26    25    1
    71    62    61    1
    72    63    61    1
    73    24    25    1
    74    24    23    1
    75    61    60    1
    76    28    27    1
    77    28    31    1
    78    22    21    2
    79   123   121    1
    80    23    20    1
    81    59    58    2
    82    27    21   am
    83    21    20    1
    84    31    32    1
    85    31    33    1
    86   112   110   am
    87   104   105    1
    88    60    57    1
    89   108   105    1
    90   108   109    1
    91   111   110    2
    92   110   109    1
    93    58    57    1
    94    20    19    1
    95   121   122    1
    96   121   120    2
    97    57    56    1
    98   105   106    1
    99    18    16    1
   100    19    13   am
   101   120   119    1
   102   107   106    2
   103    16    15    1
   104    15    17    1
   105    15    12    1
   106    13    14    2
   107    13    12    1
   108   119   118    1
   109   130   128    1
   110    12    11    1
   111   129   128    1
   112   128   125    1
   113   118   117    1
   114     5     6    1
   115     5     2    1
   116     8     6   ar
   117     8    10   ar
   118     6     7   ar
   119     1     2    1
   120   125   124    1
   121   125   126    1
   122   117   114    1
   123    10     9   ar
   124     7     9   ar
   125     2     3    1
   126   113   114    1
   127   126   127    2
   128   114   115    1
   129     4     3    2
   130   115   116    2
