@<TRIPOS>MOLECULE
tmp/3b6rB00.pdb
 171 162 0 0 0
SMALL
GASTEIGER

@<TRIPOS>ATOM
      1  N        -55.3210   20.9600   15.8940 N.3   123  SER123     -0.1217
      2  CA       -54.3630   20.8180   14.8050 C.3   123  SER123      0.1889
      3  C        -55.0460   20.3640   13.5280 C.2   123  SER123      0.2288
      4  O        -56.1180   19.7580   13.5640 O.2   123  SER123     -0.2866
      5  CB       -53.2820   19.8100   15.1910 C.3   123  SER123      0.2089
      6  OG       -53.8630   18.5590   15.5230 O.3   123  SER123     -0.2183
      7  N        -54.3960   18.4120    9.6710 N.3   125  ARG125     -0.1245
      8  CA       -53.5270   17.4750    8.9740 C.3   125  ARG125      0.1563
      9  C        -54.1410   16.9830    7.6700 C.2   125  ARG125      0.2260
     10  O        -55.3520   16.7830    7.5700 O.2   125  ARG125     -0.2867
     11  CB       -53.2420   16.2860    9.9020 C.3   125  ARG125      0.0307
     12  CG       -52.4470   15.1150    9.3100 C.3   125  ARG125      0.0489
     13  CD       -52.0650   14.1690   10.4520 C.3   125  ARG125      0.2205
     14  NE       -51.3340   12.9650   10.0550 N.pl3 125  ARG125     -0.0865
     15  CZ       -51.8890   11.8720    9.5360 C.cat 125  ARG125      0.5346
     16  NH1      -53.1970   11.8120    9.3270 N.pl3 125  ARG125      0.1354
     17  NH2      -51.1320   10.8160    9.2700 N.pl3 125  ARG125      0.1354
     18  N        -53.1730   14.0450    4.6840 N.3   127  ARG127     -0.1245
     19  CA       -52.2450   13.0100    4.2640 C.3   127  ARG127      0.1563
     20  C        -52.7560   12.2130    3.0870 C.2   127  ARG127      0.2260
     21  O        -53.9440   12.2440    2.7580 O.2   127  ARG127     -0.2867
     22  CB       -51.9250   12.0580    5.4240 C.3   127  ARG127      0.0307
     23  CG       -53.0420   11.1150    5.8650 C.3   127  ARG127      0.0489
     24  CD       -53.2220    9.9040    4.9360 C.3   127  ARG127      0.2205
     25  NE       -53.9990    8.8520    5.5930 N.pl3 127  ARG127     -0.0865
     26  CZ       -54.8240    8.0080    4.9770 C.cat 127  ARG127      0.5346
     27  NH1      -55.0060    8.0740    3.6630 N.pl3 127  ARG127      0.1354
     28  NH2      -55.4700    7.0880    5.6830 N.pl3 127  ARG127      0.1354
     29  N        -44.2000    9.2120   18.1240 N.3   183  ILE183     -0.1245
     30  CA       -45.4970    8.5650   18.0280 C.3   183  ILE183      0.1561
     31  C        -46.5190    9.3260   18.8620 C.2   183  ILE183      0.2260
     32  O        -47.5710    9.7240   18.3630 O.2   183  ILE183     -0.2867
     33  CB       -45.4320    7.1040   18.5330 C.3   183  ILE183      0.0252
     34  CG1      -44.5390    6.2720   17.6060 C.3   183  ILE183      0.0019
     35  CG2      -46.8390    6.5120   18.6030 C.3   183  ILE183      0.0019
     36  CD1      -44.3960    4.8150   18.0340 C.3   183  ILE183      0.0001
     37  N        -47.9010   12.4600   17.7420 N.3   186  HIS186     -0.1241
     38  CA       -48.7170   12.2770   16.5420 C.3   186  HIS186      0.1621
     39  C        -48.0070   12.4170   15.1970 C.2   186  HIS186      0.2264
     40  O        -48.6610   12.6100   14.1760 O.2   186  HIS186     -0.2867
     41  CB       -49.9050   13.2440   16.5870 C.3   186  HIS186      0.0745
     42  CG       -50.6190   13.2590   17.9050 C.ar  186  HIS186      0.0817
     43  ND1      -51.0610   12.1100   18.5250 N.ar  186  HIS186     -0.2268
     44  CD2      -50.9700   14.2830   18.7190 C.ar  186  HIS186      0.1154
     45  CE1      -51.6540   12.4250   19.6630 C.ar  186  HIS186      0.1986
     46  NE2      -51.6140   13.7370   19.8040 N.ar  186  HIS186     -0.2212
     47  N        -45.1180   10.1290   14.0770 N.3   188  LEU188     -0.1231
     48  CA       -44.7080    8.8230   13.5610 C.3   188  LEU188      0.1693
     49  C        -45.7720    7.7350   13.6870 C.2   188  LEU188      0.2592
     50  O        -46.5970    7.7530   14.6020 O.2   188  LEU188     -0.2718
     51  CB       -43.4370    8.3690   14.2840 C.3   188  LEU188      0.0284
     52  CG       -42.8740    6.9850   13.9560 C.3   188  LEU188      0.0019
     53  CD1      -42.4620    6.9110   12.4840 C.3   188  LEU188      0.0001
     54  CD2      -41.6810    6.7150   14.8710 C.3   188  LEU188      0.0001
     55  N        -45.7400    6.7800   12.7600 N.am  189  PHE189     -0.1976
     56  CA       -46.6930    5.6820   12.7790 C.3   189  PHE189      0.1639
     57  C        -46.4540    4.8470   14.0240 C.2   189  PHE189      0.2290
     58  O        -45.3240    4.7220   14.4970 O.2   189  PHE189     -0.2864
     59  CB       -46.5700    4.8290   11.5050 C.3   189  PHE189      0.0560
     60  CG       -45.1570    4.4740   11.1330 C.ar  189  PHE189     -0.0200
     61  CD1      -44.4810    3.4530   11.7920 C.ar  189  PHE189     -0.0042
     62  CD2      -44.5030    5.1620   10.1110 C.ar  189  PHE189     -0.0042
     63  CE1      -43.1670    3.1170   11.4340 C.ar  189  PHE189     -0.0003
     64  CE2      -43.1950    4.8370    9.7470 C.ar  189  PHE189     -0.0003
     65  CZ       -42.5250    3.8100   10.4100 C.ar  189  PHE189     -0.0000
     66  N        -43.7460    8.9570    5.7020 N.3   223  TRP223     -0.1241
     67  CA       -43.5160    7.6560    6.3210 C.3   223  TRP223      0.1605
     68  C        -43.0630    6.7370    5.1990 C.2   223  TRP223      0.2264
     69  O        -43.6990    6.6800    4.1470 O.2   223  TRP223     -0.2867
     70  CB       -44.8020    7.0910    6.9250 C.3   223  TRP223      0.0550
     71  CG       -45.3490    7.8470    8.0910 C.ar  223  TRP223      0.0003
     72  CD1      -44.7530    8.8740    8.7660 C.ar  223  TRP223      0.0946
     73  CD2      -46.6050    7.6150    8.7370 C.ar  223  TRP223      0.0152
     74  NE1      -45.5650    9.2970    9.7960 N.ar  223  TRP223     -0.2442
     75  CE2      -46.7070    8.5400    9.7990 C.ar  223  TRP223      0.0810
     76  CE3      -47.6560    6.7130    8.5210 C.ar  223  TRP223      0.0012
     77  CZ2      -47.8190    8.5890   10.6450 C.ar  223  TRP223      0.0191
     78  CZ3      -48.7610    6.7620    9.3620 C.ar  223  TRP223      0.0001
     79  CH2      -48.8320    7.6950   10.4110 C.ar  223  TRP223      0.0015
     80  N        -46.3010    7.5750    2.6250 N.3   231  ARG231     -0.1245
     81  CA       -47.4390    8.2480    3.2270 C.3   231  ARG231      0.1563
     82  C        -46.9480    9.6880    3.3680 C.2   231  ARG231      0.2260
     83  O        -46.0460    9.9730    4.1610 O.2   231  ARG231     -0.2867
     84  CB       -47.7900    7.6620    4.6010 C.3   231  ARG231      0.0307
     85  CG       -48.6110    6.3810    4.5440 C.3   231  ARG231      0.0489
     86  CD       -49.9210    6.5790    3.7720 C.3   231  ARG231      0.2205
     87  NE       -50.7360    5.3640    3.7470 N.pl3 231  ARG231     -0.0865
     88  CZ       -51.6430    5.0430    4.6670 C.cat 231  ARG231      0.5346
     89  NH1      -51.8700    5.8500    5.6950 N.pl3 231  ARG231      0.1354
     90  NH2      -52.3130    3.9020    4.5680 N.pl3 231  ARG231      0.1354
     91  N        -48.9980   18.7470    8.3540 N.3   235  MET235     -0.1245
     92  CA       -49.7430   19.0150    9.5800 C.3   235  MET235      0.1570
     93  C        -49.1140   20.1240   10.4150 C.2   235  MET235      0.2261
     94  O        -47.9320   20.4360   10.2720 O.2   235  MET235     -0.2867
     95  CB       -49.8470   17.7340   10.4230 C.3   235  MET235      0.0387
     96  CG       -48.5030   17.1790   10.8930 C.3   235  MET235      0.0595
     97  SD       -48.6290   15.4920   11.5560 S.3   235  MET235     -0.1393
     98  CE       -49.2710   15.8250   13.1950 C.3   235  MET235      0.0692
     99  N        -56.7320   11.9080    3.3170 N.3   287  ARG287     -0.1245
    100  CA       -57.4700   11.9920    4.5650 C.3   287  ARG287      0.1563
    101  C        -57.0980   13.3240    5.2010 C.2   287  ARG287      0.2260
    102  O        -55.9930   13.4940    5.7130 O.2   287  ARG287     -0.2867
    103  CB       -57.1150   10.8360    5.5140 C.3   287  ARG287      0.0307
    104  CG       -58.0820   10.7030    6.6900 C.3   287  ARG287      0.0489
    105  CD       -57.8560    9.4170    7.4750 C.3   287  ARG287      0.2205
    106  NE       -56.8750    9.5680    8.5460 N.pl3 287  ARG287     -0.0865
    107  CZ       -57.1050   10.2220    9.6810 C.cat 287  ARG287      0.5346
    108  NH1      -58.2810   10.7890    9.8960 N.pl3 287  ARG287      0.1354
    109  NH2      -56.1610   10.3040   10.6090 N.pl3 287  ARG287      0.1354
    110  N        -58.1170   16.1350    8.0390 N.3   289  GLY289     -0.1210
    111  CA       -58.8870   16.2040    9.2590 C.3   289  GLY289      0.1956
    112  C        -58.2710   17.0840   10.3170 C.2   289  GLY289      0.2612
    113  O        -57.1940   17.6570   10.1310 O.2   289  GLY289     -0.2717
    114  N        -58.9640   17.1780   11.4430 N.am  290  VAL290     -0.1965
    115  CA       -58.5050   17.9950   12.5460 C.3   290  VAL290      0.1727
    116  C        -58.6420   17.2520   13.8680 C.2   290  VAL290      0.2616
    117  O        -59.3720   16.2630   13.9760 O.2   290  VAL290     -0.2715
    118  CB       -59.3420   19.2850   12.6600 C.3   290  VAL290      0.0290
    119  CG1      -59.3160   20.0590   11.3560 C.3   290  VAL290      0.0023
    120  CG2      -60.7660   18.9280   13.0240 C.3   290  VAL290      0.0023
    121  N        -57.9020   17.7230   14.8640 N.am  291  HIS291     -0.1973
    122  CA       -57.9880   17.1860   16.2140 C.3   291  HIS291      0.1656
    123  C        -58.9080   18.2550   16.7800 C.2   291  HIS291      0.2291
    124  O        -58.5420   19.4310   16.8240 O.2   291  HIS291     -0.2864
    125  CB       -56.6210   17.2100   16.9000 C.3   291  HIS291      0.0771
    126  CG       -55.9620   15.8660   16.9690 C.ar  291  HIS291      0.0820
    127  ND1      -56.3770   14.7950   16.2050 N.ar  291  HIS291     -0.2267
    128  CD2      -54.9020   15.4250   17.6870 C.ar  291  HIS291      0.1154
    129  CE1      -55.6020   13.7530   16.4490 C.ar  291  HIS291      0.1986
    130  NE2      -54.6980   14.1100   17.3440 N.ar  291  HIS291     -0.2212
    131  N        -62.1670    9.2630   14.5690 N.3   315  ARG315     -0.1245
    132  CA       -61.1560    8.3490   15.0780 C.3   315  ARG315      0.1563
    133  C        -60.6820    8.8330   16.4420 C.2   315  ARG315      0.2260
    134  O        -61.0490    9.9260   16.8890 O.2   315  ARG315     -0.2867
    135  CB       -59.9600    8.2790   14.1210 C.3   315  ARG315      0.0307
    136  CG       -60.3080    7.8260   12.7120 C.3   315  ARG315      0.0489
    137  CD       -59.0650    7.6770   11.8530 C.3   315  ARG315      0.2205
    138  NE       -59.3820    7.0960   10.5540 N.pl3 315  ARG315     -0.0865
    139  CZ       -58.4710    6.6710    9.6850 C.cat 315  ARG315      0.5346
    140  NH1      -57.1790    6.7630    9.9770 N.pl3 315  ARG315      0.1354
    141  NH2      -58.8520    6.1500    8.5250 N.pl3 315  ARG315      0.1354
    142  N        -57.8370   10.0040   19.3750 N.3   317  THR317     -0.1203
    143  CA       -56.7730   11.0000   19.3970 C.3   317  THR317      0.1994
    144  C        -55.4560   10.3920   18.9160 C.2   317  THR317      0.2618
    145  O        -54.6270   11.0750   18.3270 O.2   317  THR317     -0.2717
    146  CB       -56.5670   11.5510   20.8290 C.3   317  THR317      0.1784
    147  OG1      -57.8410   11.7190   21.4660 O.3   317  THR317     -0.2211
    148  CG2      -55.8500   12.9000   20.7850 C.3   317  THR317      0.0376
    149  N        -55.2790    9.1000   19.1680 N.am  318  GLY318     -0.1942
    150  CA       -54.0640    8.4200   18.7640 C.3   318  GLY318      0.2014
    151  C        -54.1940    7.6650   17.4570 C.2   318  GLY318      0.2639
    152  O        -53.3330    6.8560   17.1120 O.2   318  GLY318     -0.2714
    153  N        -55.2700    7.9220   16.7210 N.am  319  GLY319     -0.1939
    154  CA       -55.4480    7.2400   15.4560 C.3   319  GLY319      0.2014
    155  C        -56.6420    6.3110   15.3960 C.2   319  GLY319      0.2638
    156  O        -57.4140    6.1930   16.3490 O.2   319  GLY319     -0.2714
    157  N        -56.7740    5.6390   14.2590 N.am  320  VAL320     -0.1977
    158  CA       -57.8710    4.7190   13.9960 C.3   320  VAL320      0.1596
    159  C        -57.9870    3.5560   14.9850 C.2   320  VAL320      0.2287
    160  O        -59.0880    3.0630   15.2490 O.2   320  VAL320     -0.2864
    161  CB       -57.7500    4.1450   12.5690 C.3   320  VAL320      0.0276
    162  CG1      -56.4810    3.3080   12.4500 C.3   320  VAL320      0.0022
    163  CG2      -58.9750    3.3250   12.2350 C.3   320  VAL320      0.0022
    164  N        -60.6890   12.9350   16.2540 N.3   330  ASP330     -0.1239
    165  CA       -60.0030   13.0410   14.9760 C.3   330  ASP330      0.1674
    166  C        -61.1480   12.9740   13.9680 C.2   330  ASP330      0.2266
    167  O        -61.7530   11.9150   13.7820 O.2   330  ASP330     -0.2867
    168  CB       -59.0740   11.8420   14.7600 C.3   330  ASP330      0.1410
    169  CG       -58.3370   11.8940   13.4240 C.2   330  ASP330      0.3668
    170  OD1      -58.8900   12.4330   12.4420 O.co2 330  ASP330     -0.2456
    171  OD2      -57.2050   11.3720   13.3510 O.co2 330  ASP330     -0.2456
@<TRIPOS>BOND
     1    80    81    1
     2    21    20    2
     3    20    19    1
     4    81    82    1
     5    81    84    1
     6    99   100    1
     7    82    83    2
     8    27    26    1
     9    87    86    1
    10    87    88    2
    11    86    85    1
    12    69    68    2
    13    19    18    1
    14    19    22    1
    15    85    84    1
    16   100   101    1
    17   100   103    1
    18    90    88    1
    19    88    89    1
    20    24    25    1
    21    24    23    1
    22    26    25    2
    23    26    28    1
    24    68    67    1
    25   101   102    2
    26    22    23    1
    27   103   104    1
    28    66    67    1
    29    67    70    1
    30   104   105    1
    31    70    71    1
    32   105   106    1
    33    10     9    2
    34     9     8    1
    35   110   111    1
    36    71    73   ar
    37    71    72   ar
    38    91    92    1
    39    76    73   ar
    40    76    78   ar
    41   141   139    1
    42   106   107    2
    43    73    75   ar
    44    72    74   ar
    45     8     7    1
    46     8    11    1
    47   111   112    1
    48    17    15    1
    49    12    11    1
    50    12    13    1
    51    16    15    1
    52    78    79   ar
    53    15    14    2
    54    92    93    1
    55    92    95    1
    56   107   108    1
    57   107   109    1
    58   139   140    1
    59   139   138    2
    60    64    62   ar
    61    64    65   ar
    62    74    75   ar
    63    75    77   ar
    64    14    13    1
    65    62    60   ar
    66   113   112    2
    67    94    93    2
    68   112   114   am
    69    65    63   ar
    70    79    77   ar
    71    95    96    1
    72   138   137    1
    73    96    97    1
    74    60    59    1
    75    60    61   ar
    76   119   118    1
    77    63    61   ar
    78   114   115    1
    79    59    56    1
    80    97    98    1
    81   137   136    1
    82   163   161    1
    83   170   169   ar
    84   162   161    1
    85    53    52    1
    86   115   118    1
    87   115   116    1
    88   161   158    1
    89   118   120    1
    90   136   135    1
    91    55    56    1
    92    55    49   am
    93    56    57    1
    94   171   169   ar
    95   169   168    1
    96     3     4    2
    97     3     2    1
    98    48    49    1
    99    48    47    1
   100    48    51    1
   101    49    50    2
   102   167   166    2
   103   116   117    2
   104   116   121   am
   105    52    51    1
   106    52    54    1
   107   166   165    1
   108   158   157    1
   109   158   159    1
   110    57    58    2
   111   135   132    1
   112    40    39    2
   113   157   155   am
   114   131   132    1
   115   168   165    1
   116     2     5    1
   117     2     1    1
   118   121   122    1
   119   165   164    1
   120   159   160    2
   121   132   133    1
   122     5     6    1
   123    39    38    1
   124   155   154    1
   125   155   156    2
   126   154   153    1
   127   127   129   ar
   128   127   126   ar
   129   122   123    1
   130   122   125    1
   131   133   134    2
   132   129   130   ar
   133    38    41    1
   134    38    37    1
   135    41    42    1
   136   153   151   am
   137   123   124    2
   138   125   126    1
   139   126   128   ar
   140   152   151    2
   141   130   128   ar
   142   151   150    1
   143    34    36    1
   144    34    33    1
   145    42    43   ar
   146    42    44   ar
   147    30    29    1
   148    30    33    1
   149    30    31    1
   150   145   144    2
   151    32    31    2
   152    43    45   ar
   153    33    35    1
   154    44    46   ar
   155   150   149    1
   156   144   149   am
   157   144   143    1
   158   142   143    1
   159   143   146    1
   160    45    46   ar
   161   148   146    1
   162   146   147    1
