@<TRIPOS>MOLECULE
tmp/3b6uB00.pdb
 152 149 0 0 0
SMALL
GASTEIGER

@<TRIPOS>ATOM
      1  N        -14.2210   32.3200   77.3520 N.3    12  ARG12      -0.1231
      2  CA       -14.6350   31.7390   76.1090 C.3    12  ARG12       0.1694
      3  C        -14.7020   30.2350   76.2450 C.2    12  ARG12       0.2592
      4  O        -13.7190   29.6140   76.5930 O.2    12  ARG12      -0.2718
      5  CB       -13.6420   32.0630   74.9980 C.3    12  ARG12       0.0321
      6  CG       -14.1730   31.6600   73.6440 C.3    12  ARG12       0.0489
      7  CD       -13.1680   31.8480   72.5420 C.3    12  ARG12       0.2205
      8  NE       -13.8280   31.7390   71.2320 N.pl3  12  ARG12      -0.0865
      9  CZ       -13.2280   32.0060   70.0750 C.cat  12  ARG12       0.5346
     10  NH1      -11.9660   32.3320   70.0730 N.pl3  12  ARG12       0.1354
     11  NH2      -13.9100   31.9380   68.9290 N.pl3  12  ARG12       0.1354
     12  N        -15.8670   29.6610   75.9830 N.am   13  CYS13      -0.1956
     13  CA       -16.0150   28.2090   76.0200 C.3    13  CYS13       0.1843
     14  C        -16.1240   27.6910   74.6020 C.2    13  CYS13       0.2625
     15  O        -16.9980   28.1190   73.8410 O.2    13  CYS13      -0.2714
     16  CB       -17.2200   27.7910   76.8400 C.3    13  CYS13       0.0997
     17  SG       -17.3720   26.0060   77.0580 S.3    13  CYS13      -0.0797
     18  N        -15.2350   26.7650   74.2420 N.am   14  ARG14      -0.1964
     19  CA       -15.2050   26.2410   72.8760 C.3    14  ARG14       0.1714
     20  C        -16.2790   25.1560   72.7070 C.2    14  ARG14       0.2458
     21  O        -16.8010   24.6740   73.6920 O.2    14  ARG14      -0.2730
     22  CB       -13.8260   25.6740   72.5600 C.3    14  ARG14       0.0347
     23  CG       -13.3760   24.5230   73.4160 C.3    14  ARG14       0.0492
     24  CD       -12.4010   23.6520   72.6380 C.3    14  ARG14       0.2205
     25  NE       -11.7900   22.6200   73.4460 N.pl3  14  ARG14      -0.0865
     26  CZ       -12.3740   21.4770   73.8330 C.cat  14  ARG14       0.5346
     27  NH1      -13.6370   21.1930   73.5040 N.pl3  14  ARG14       0.1354
     28  NH2      -11.6810   20.6110   74.5530 N.pl3  14  ARG14       0.1354
     29  N        -16.5990   24.7750   71.4420 N.am   15  PRO15      -0.2727
     30  CA       -17.5010   23.6490   71.2120 C.3    15  PRO15       0.1402
     31  C        -16.9810   22.3560   71.7860 C.2    15  PRO15       0.2269
     32  O        -15.7690   22.1400   71.8420 O.2    15  PRO15      -0.2865
     33  CB       -17.5650   23.5430   69.6760 C.3    15  PRO15       0.0296
     34  CG       -17.2100   24.8990   69.1790 C.3    15  PRO15       0.0237
     35  CD       -16.1800   25.4050   70.1810 C.3    15  PRO15       0.0939
     36  N        -15.8420   18.8900   71.3080 N.3    17  ASN17      -0.1240
     37  CA       -15.1860   18.2930   70.1250 C.3    17  ASN17       0.1653
     38  C        -15.5620   16.8180   69.8670 C.2    17  ASN17       0.2266
     39  O        -16.2740   16.1850   70.6560 O.2    17  ASN17      -0.2867
     40  CB       -13.6500   18.5440   70.1760 C.3    17  ASN17       0.1155
     41  CG       -12.9290   17.7810   71.2710 C.2    17  ASN17       0.2627
     42  OD1      -13.2530   16.6400   71.5770 O.2    17  ASN17      -0.2716
     43  ND2      -11.8660   18.3820   71.8030 N.am   17  ASN17      -0.0877
     44  N        -19.7390   32.0000   74.0180 N.3    61  ASP61      -0.1225
     45  CA       -20.1010   30.5740   73.9740 C.3    61  ASP61       0.1805
     46  C        -19.4990   29.8850   72.7420 C.2    61  ASP61       0.2597
     47  O        -18.6980   30.4930   71.9760 O.2    61  ASP61      -0.2718
     48  CB       -21.6250   30.3970   74.1180 C.3    61  ASP61       0.1424
     49  CG       -22.3910   30.7580   72.8780 C.2    61  ASP61       0.3668
     50  OD1      -21.7840   31.0520   71.8340 O.co2  61  ASP61      -0.2456
     51  OD2      -23.6510   30.6940   72.9410 O.co2  61  ASP61      -0.2456
     52  N        -19.8510   28.6130   72.5770 N.am   62  TRP62      -0.1976
     53  CA       -19.3560   27.7760   71.4990 C.3    62  TRP62       0.1640
     54  C        -19.5760   28.3660   70.0880 C.2    62  TRP62       0.2290
     55  O        -18.8520   28.0050   69.1690 O.2    62  TRP62      -0.2864
     56  CB       -19.9990   26.3760   71.5980 C.3    62  TRP62       0.0576
     57  CG       -21.4900   26.3630   71.2990 C.ar   62  TRP62       0.0006
     58  CD1      -22.0670   26.2600   70.0710 C.ar   62  TRP62       0.0946
     59  CD2      -22.5710   26.4560   72.2430 C.ar   62  TRP62       0.0152
     60  NE1      -23.4370   26.2820   70.1830 N.ar   62  TRP62      -0.2442
     61  CE2      -23.7740   26.4080   71.5040 C.ar   62  TRP62       0.0810
     62  CE3      -22.6400   26.5790   73.6390 C.ar   62  TRP62       0.0012
     63  CZ2      -25.0380   26.4680   72.1110 C.ar   62  TRP62       0.0191
     64  CZ3      -23.9020   26.6490   74.2480 C.ar   62  TRP62       0.0001
     65  CH2      -25.0840   26.5920   73.4780 C.ar   62  TRP62       0.0015
     66  N        -19.4770   31.7600   69.3790 N.3    64  ALA64      -0.1245
     67  CA       -18.8830   33.0900   69.2870 C.3    64  ALA64       0.1562
     68  C        -17.9880   33.1410   68.0590 C.2    64  ALA64       0.2260
     69  O        -17.2350   32.2000   67.8040 O.2    64  ALA64      -0.2867
     70  CB       -18.0500   33.3920   70.5140 C.3    64  ALA64       0.0290
     71  N         -6.6570   25.6690   80.1110 N.3    94  GLN94      -0.1231
     72  CA        -6.1390   24.3270   80.0410 C.3    94  GLN94       0.1698
     73  C         -5.7250   24.0190   78.5900 C.2    94  GLN94       0.2593
     74  O         -6.3330   24.5560   77.6150 O.2    94  GLN94      -0.2718
     75  CB        -7.2310   23.3540   80.5270 C.3    94  GLN94       0.0381
     76  CG        -6.9070   21.9020   80.4310 C.3    94  GLN94       0.0905
     77  CD        -8.1280   21.0190   80.7080 C.2    94  GLN94       0.2608
     78  OE1       -9.2820   21.4520   80.6030 O.2    94  GLN94      -0.2717
     79  NE2       -7.8650   19.7720   81.0280 N.am   94  GLN94      -0.0878
     80  N         -4.6820   23.1950   78.4350 N.am   95  THR95      -0.1939
     81  CA        -4.3210   22.6900   77.1000 C.3    95  THR95       0.2028
     82  C         -5.5600   22.1350   76.3630 C.2    95  THR95       0.2643
     83  O         -6.3720   21.4240   76.9190 O.2    95  THR95      -0.2714
     84  CB        -3.1950   21.6500   77.1780 C.3    95  THR95       0.1808
     85  OG1       -2.0570   22.2650   77.7650 O.3    95  THR95      -0.2208
     86  CG2       -2.8220   21.1290   75.7600 C.3    95  THR95       0.0379
     87  N         -5.7070   22.5220   75.1140 N.am   96  GLY96      -0.1939
     88  CA        -6.7830   22.1180   74.2850 C.3    96  GLY96       0.2014
     89  C         -8.0700   22.9080   74.3280 C.2    96  GLY96       0.2640
     90  O         -8.9890   22.5530   73.6030 O.2    96  GLY96      -0.2714
     91  N         -8.1360   23.9850   75.1270 N.am   97  THR97      -0.1936
     92  CA        -9.3530   24.7570   75.2990 C.3    97  THR97       0.2028
     93  C         -9.5730   25.8870   74.2800 C.2    97  THR97       0.2643
     94  O        -10.6910   26.3030   74.0450 O.2    97  THR97      -0.2714
     95  CB        -9.4180   25.3600   76.7160 C.3    97  THR97       0.1808
     96  OG1       -8.2920   26.1970   76.9330 O.3    97  THR97      -0.2208
     97  CG2       -9.4840   24.2420   77.8080 C.3    97  THR97       0.0379
     98  N         -8.4900   26.3690   73.6600 N.am   98  GLY98      -0.1939
     99  CA        -8.6150   27.3380   72.6020 C.3    98  GLY98       0.2014
    100  C         -7.8080   28.6050   72.7690 C.2    98  GLY98       0.2639
    101  O         -8.1140   29.5650   72.1300 O.2    98  GLY98      -0.2714
    102  N         -6.7270   28.5790   73.5530 N.am   99  LYS99      -0.1963
    103  CA        -5.8730   29.7710   73.7140 C.3    99  LYS99       0.1728
    104  C         -5.2530   30.1910   72.3650 C.2    99  LYS99       0.2617
    105  O         -5.3000   31.3510   71.9640 O.2    99  LYS99      -0.2715
    106  CB        -4.7600   29.5210   74.7440 C.3    99  LYS99       0.0311
    107  CG        -5.2020   29.2570   76.1720 C.3    99  LYS99       0.0038
    108  CD        -3.9750   28.9290   77.0610 C.3    99  LYS99       0.0206
    109  CE        -3.2610   27.5830   76.7500 C.3    99  LYS99       0.1093
    110  NZ        -4.1670   26.3880   76.7370 N.3    99  LYS99      -0.1314
    111  N         -4.6820   29.2410   71.6630 N.am  100  THR100     -0.1937
    112  CA        -4.0140   29.5230   70.3940 C.3   100  THR100      0.2028
    113  C         -5.0390   29.8430   69.2960 C.2   100  THR100      0.2642
    114  O         -4.8110   30.7580   68.4570 O.2   100  THR100     -0.2714
    115  CB        -3.1280   28.3290   69.9720 C.3   100  THR100      0.1808
    116  OG1       -2.1250   28.1180   70.9650 O.3   100  THR100     -0.2208
    117  CG2       -2.4250   28.6050   68.6080 C.3   100  THR100      0.0379
    118  N         -6.1410   29.0950   69.2810 N.am  101  TYR101     -0.1959
    119  CA        -7.2360   29.3930   68.3450 C.3   101  TYR101      0.1771
    120  C         -7.6880   30.8810   68.5390 C.2   101  TYR101      0.2620
    121  O         -7.8700   31.6410   67.5650 O.2   101  TYR101     -0.2715
    122  CB        -8.4040   28.4930   68.5750 C.3   101  TYR101      0.0574
    123  CG        -9.5110   28.7250   67.5750 C.ar  101  TYR101     -0.0198
    124  CD1       -9.3390   28.3860   66.2510 C.ar  101  TYR101     -0.0009
    125  CD2      -10.7020   29.3460   67.9480 C.ar  101  TYR101     -0.0009
    126  CE1      -10.3350   28.6120   65.3260 C.ar  101  TYR101      0.0417
    127  CE2      -11.7110   29.5760   67.0250 C.ar  101  TYR101      0.0417
    128  CZ       -11.5210   29.2140   65.7210 C.ar  101  TYR101      0.1957
    129  OH       -12.4670   29.4520   64.7260 O.3   101  TYR101     -0.2866
    130  N         -7.8310   31.2720   69.7980 N.am  102  THR102     -0.1951
    131  CA        -8.1900   32.6550   70.1470 C.3   102  THR102      0.1897
    132  C         -7.1110   33.7180   69.7810 C.2   102  THR102      0.2313
    133  O         -7.4540   34.7650   69.2500 O.2   102  THR102     -0.2863
    134  CB        -8.5930   32.7880   71.6420 C.3   102  THR102      0.1794
    135  OG1       -9.6800   31.9050   71.9050 O.3   102  THR102     -0.2208
    136  CG2       -9.0200   34.2380   71.9410 C.3   102  THR102      0.0378
    137  N         -6.6270   31.0610   62.5450 N.3   106  ILE106     -0.1245
    138  CA        -6.2030   30.6540   61.2080 C.3   106  ILE106      0.1561
    139  C         -5.8160   31.9040   60.4220 C.2   106  ILE106      0.2260
    140  O         -6.6660   32.6190   59.9400 O.2   106  ILE106     -0.2867
    141  CB        -7.3350   29.9010   60.4830 C.3   106  ILE106      0.0252
    142  CG1       -7.8600   28.7590   61.3740 C.3   106  ILE106      0.0019
    143  CG2       -6.8640   29.4570   59.0780 C.3   106  ILE106      0.0019
    144  CD1       -6.7390   27.7910   61.8680 C.3   106  ILE106      0.0001
    145  N          0.1390   34.0880   74.6980 N.3   242  ASP242     -0.1239
    146  CA        -0.5120   32.7660   74.6190 C.3   242  ASP242      0.1674
    147  C          0.2240   31.9310   75.7060 C.2   242  ASP242      0.2266
    148  O          1.3750   31.5240   75.5390 O.2   242  ASP242     -0.2867
    149  CB        -0.3210   32.1860   73.2140 C.3   242  ASP242      0.1410
    150  CG        -0.9390   30.8130   73.0270 C.2   242  ASP242      0.3668
    151  OD1       -1.4610   30.2300   74.0210 O.co2 242  ASP242     -0.2456
    152  OD2       -0.9190   30.3120   71.8420 O.co2 242  ASP242     -0.2456
@<TRIPOS>BOND
     1   143   141    1
     2   140   139    2
     3   139   138    1
     4   141   138    1
     5   141   142    1
     6   138   137    1
     7   142   144    1
     8   129   128    1
     9   126   128   ar
    10   126   124   ar
    11   128   127   ar
    12   124   123   ar
    13   127   125   ar
    14   121   120    2
    15   123   125   ar
    16   123   122    1
    17    69    68    2
    18    68    67    1
    19   119   120    1
    20   119   122    1
    21   119   118    1
    22   114   113    2
    23   120   130   am
    24   117   115    1
    25    11     9    1
    26    55    54    2
    27    34    33    1
    28    34    35    1
    29   133   132    2
    30   118   113   am
    31    67    66    1
    32    67    70    1
    33   113   112    1
    34    33    30    1
    35   132   131    1
    36   130   131    1
    37    38    37    1
    38    38    39    2
    39   115   112    1
    40   115   116    1
    41    58    60   ar
    42    58    57   ar
    43    10     9    1
    44     9     8    2
    45    54    53    1
    46    37    40    1
    47    37    36    1
    48   131   134    1
    49    40    41    1
    50    35    29    1
    51    60    61   ar
    52   112   111    1
    53    30    29    1
    54    30    31    1
    55     8     7    1
    56    41    42    2
    57    41    43   am
    58    57    56    1
    59    57    59   ar
    60    29    20   am
    61    53    56    1
    62    53    52    1
    63    61    63   ar
    64    61    59   ar
    65   134   135    1
    66   134   136    1
    67   111   104   am
    68    31    32    2
    69    50    49   ar
    70   152   150   ar
    71   105   104    2
    72    47    46    2
    73    63    65   ar
    74   101   100    2
    75    59    62   ar
    76   104   103    1
    77     7     6    1
    78    22    19    1
    79    22    23    1
    80    52    46   am
    81    99   100    1
    82    99    98    1
    83    24    23    1
    84    24    25    1
    85    20    19    1
    86    20    21    2
    87    46    45    1
    88   100   102   am
    89    19    18    1
    90    49    51   ar
    91    49    48    1
    92   150   149    1
    93   150   151   ar
    94   149   146    1
    95    25    26    2
    96    65    64   ar
    97    27    26    1
    98   102   103    1
    99    90    89    2
   100    62    64   ar
   101     6     5    1
   102    98    93   am
   103   103   106    1
   104    26    28    1
   105    15    14    2
   106    45    44    1
   107    45    48    1
   108    94    93    2
   109    18    14   am
   110    93    92    1
   111    88    89    1
   112    88    87    1
   113    89    91   am
   114    14    13    1
   115   146   145    1
   116   146   147    1
   117   106   107    1
   118     5     2    1
   119    87    82   am
   120    91    92    1
   121    92    95    1
   122   148   147    2
   123    86    84    1
   124    12    13    1
   125    12     3   am
   126    13    16    1
   127     2     3    1
   128     2     1    1
   129   107   108    1
   130     3     4    2
   131    82    83    2
   132    82    81    1
   133    95    96    1
   134    95    97    1
   135   110   109    1
   136   109   108    1
   137    16    17    1
   138    81    84    1
   139    81    80    1
   140    84    85    1
   141    74    73    2
   142    80    73   am
   143    73    72    1
   144    72    71    1
   145    72    75    1
   146    76    75    1
   147    76    77    1
   148    78    77    2
   149    77    79   am
