@<TRIPOS>MOLECULE
tmp/3b6vA00.pdb
 139 136 0 0 0
SMALL
GASTEIGER

@<TRIPOS>ATOM
      1  N         -8.4160   16.8890   17.4330 N.3     9  ARG9       -0.1231
      2  CA        -8.0550   16.0950   18.5980 C.3     9  ARG9        0.1694
      3  C         -7.3490   14.8580   18.1520 C.2     9  ARG9        0.2592
      4  O         -7.7520   14.2470   17.1750 O.2     9  ARG9       -0.2718
      5  CB        -9.2700   15.7180   19.4180 C.3     9  ARG9        0.0321
      6  CG        -8.8960   15.1990   20.7690 C.3     9  ARG9        0.0489
      7  CD       -10.0930   14.8260   21.5990 C.3     9  ARG9        0.2205
      8  NE        -9.7180   14.6380   23.0030 N.pl3   9  ARG9       -0.0865
      9  CZ       -10.5190   14.1580   23.9510 C.cat   9  ARG9        0.5346
     10  NH1      -10.0590   14.0370   25.1920 N.pl3   9  ARG9        0.1354
     11  NH2      -11.7650   13.7900   23.6670 N.pl3   9  ARG9        0.1354
     12  N         -6.2920   14.4930   18.8710 N.am   10  CYS10      -0.1956
     13  CA        -5.5070   13.2860   18.5750 C.3    10  CYS10       0.1843
     14  C         -5.4360   12.3970   19.7970 C.2    10  CYS10       0.2625
     15  O         -5.0660   12.8640   20.8690 O.2    10  CYS10      -0.2714
     16  CB        -4.0820   13.6600   18.1700 C.3    10  CYS10       0.0997
     17  SG        -3.0820   12.2470   17.5960 S.3    10  CYS10      -0.0797
     18  N         -5.7810   11.1180   19.6360 N.am   11  ARG11      -0.1964
     19  CA        -5.6620   10.1380   20.7340 C.3    11  ARG11       0.1714
     20  C         -4.2030    9.7050   20.9430 C.2    11  ARG11       0.2458
     21  O         -3.3520    9.9400   20.0700 O.2    11  ARG11      -0.2730
     22  CB        -6.5290    8.9130   20.4690 C.3    11  ARG11       0.0347
     23  CG        -6.0310    8.0130   19.3890 C.3    11  ARG11       0.0492
     24  CD        -6.8240    6.7190   19.3940 C.3    11  ARG11       0.2205
     25  NE        -6.4970    5.8580   18.2660 N.pl3  11  ARG11      -0.0865
     26  CZ        -5.3740    5.1600   18.1610 C.cat  11  ARG11       0.5346
     27  NH1       -5.1840    4.3970   17.0950 N.pl3  11  ARG11       0.1354
     28  NH2       -4.4310    5.2230   19.1070 N.pl3  11  ARG11       0.1354
     29  N         -3.9020    9.0740   22.1070 N.am   12  PRO12      -0.2727
     30  CA        -2.5080    8.6570   22.3550 C.3    12  PRO12       0.1402
     31  C         -2.0220    7.5460   21.4010 C.2    12  PRO12       0.2269
     32  O         -2.8280    6.8850   20.7640 O.2    12  PRO12      -0.2865
     33  CB        -2.5460    8.1500   23.8140 C.3    12  PRO12       0.0296
     34  CG        -3.8330    8.6550   24.3900 C.3    12  PRO12       0.0237
     35  CD        -4.7770    8.7220   23.2490 C.3    12  PRO12       0.0939
     36  N         -4.2780   17.2460   22.2450 N.3    58  ASP58      -0.1225
     37  CA        -3.3750   16.1280   22.0190 C.3    58  ASP58       0.1805
     38  C         -3.6060   15.0630   23.0700 C.2    58  ASP58       0.2597
     39  O         -4.4900   15.2090   23.9080 O.2    58  ASP58      -0.2718
     40  CB        -1.9200   16.6220   21.9970 C.3    58  ASP58       0.1424
     41  CG        -1.4370   17.1170   23.3480 C.2    58  ASP58       0.3668
     42  OD1       -2.2430   17.1580   24.3080 O.co2  58  ASP58      -0.2456
     43  OD2       -0.2290   17.4600   23.4460 O.co2  58  ASP58      -0.2456
     44  N         -2.8090   13.9970   23.0260 N.am   59  ALA59      -0.1979
     45  CA        -3.0020   12.8190   23.8930 C.3    59  ALA59       0.1597
     46  C         -3.2610   13.1500   25.3850 C.2    59  ALA59       0.2287
     47  O         -4.1420   12.5530   26.0160 O.2    59  ALA59      -0.2864
     48  CB        -1.8150   11.8700   23.7520 C.3    59  ALA59       0.0319
     49  N         -4.5520   15.8770   26.6050 N.3    61  SER61      -0.1217
     50  CA        -5.6630   16.8290   26.7860 C.3    61  SER61       0.1889
     51  C         -6.8450   16.1290   27.4370 C.2    61  SER61       0.2288
     52  O         -7.2330   15.0560   27.0060 O.2    61  SER61      -0.2866
     53  CB        -6.0860   17.4790   25.4530 C.3    61  SER61       0.2089
     54  OG        -5.1460   18.4960   25.0530 O.3    61  SER61      -0.2183
     55  N        -12.0740    5.5180   11.8300 N.3    92  THR92      -0.1203
     56  CA       -12.4770    4.5660   12.8690 C.3    92  THR92       0.1994
     57  C        -11.3080    4.3110   13.8320 C.2    92  THR92       0.2618
     58  O        -10.1550    4.1410   13.4130 O.2    92  THR92      -0.2717
     59  CB       -12.9200    3.2090   12.2560 C.3    92  THR92       0.1784
     60  OG1      -13.8240    3.4420   11.1660 O.3    92  THR92      -0.2211
     61  CG2      -13.5930    2.3150   13.3030 C.3    92  THR92       0.0376
     62  N        -11.6030    4.2980   15.1130 N.am   93  GLY93      -0.1942
     63  CA       -10.5910    4.0590   16.1230 C.3    93  GLY93       0.2014
     64  C         -9.9040    5.3120   16.6460 C.2    93  GLY93       0.2640
     65  O         -9.1230    5.2230   17.5950 O.2    93  GLY93      -0.2714
     66  N        -10.1840    6.4800   16.0590 N.am   94  THR94      -0.1936
     67  CA        -9.4480    7.6980   16.4330 C.3    94  THR94       0.2028
     68  C        -10.1080    8.5240   17.5410 C.2    94  THR94       0.2643
     69  O         -9.5480    9.5320   17.9560 O.2    94  THR94      -0.2714
     70  CB        -9.1430    8.6180   15.2030 C.3    94  THR94       0.1808
     71  OG1      -10.3630    8.9800   14.5480 O.3    94  THR94      -0.2208
     72  CG2       -8.1990    7.9190   14.2140 C.3    94  THR94       0.0379
     73  N        -11.2820    8.1130   18.0180 N.am   95  GLY95      -0.1939
     74  CA       -11.8900    8.7420   19.2020 C.3    95  GLY95       0.2014
     75  C        -13.1120    9.6250   18.9720 C.2    95  GLY95       0.2639
     76  O        -13.3790   10.5480   19.7790 O.2    95  GLY95      -0.2714
     77  N        -13.8630    9.3790   17.8920 N.am   96  LYS96      -0.1963
     78  CA       -15.1430   10.1190   17.6780 C.3    96  LYS96       0.1728
     79  C        -16.1430    9.8660   18.8140 C.2    96  LYS96       0.2617
     80  O        -16.7650   10.7980   19.3020 O.2    96  LYS96      -0.2715
     81  CB       -15.7820    9.7620   16.3500 C.3    96  LYS96       0.0311
     82  CG       -14.9990   10.2630   15.1440 C.3    96  LYS96       0.0038
     83  CD       -15.6170    9.7750   13.7990 C.3    96  LYS96       0.0206
     84  CE       -15.6310    8.2550   13.6750 C.3    96  LYS96       0.1093
     85  NZ       -14.4160    7.6430   14.1920 N.3    96  LYS96      -0.1314
     86  N        -16.2770    8.6100   19.2370 N.am   97  THR97      -0.1937
     87  CA       -17.1930    8.2680   20.3080 C.3    97  THR97       0.2028
     88  C        -16.6720    8.7280   21.6780 C.2    97  THR97       0.2642
     89  O        -17.4340    9.1920   22.5190 O.2    97  THR97      -0.2714
     90  CB       -17.4360    6.7640   20.3660 C.3    97  THR97       0.1808
     91  OG1      -17.7450    6.2660   19.0440 O.3    97  THR97      -0.2208
     92  CG2      -18.5900    6.4620   21.3560 C.3    97  THR97       0.0379
     93  N        -15.3740    8.5610   21.8970 N.am   98  TYR98      -0.1973
     94  CA       -14.7320    8.9540   23.1510 C.3    98  TYR98       0.1639
     95  C        -14.9860   10.4370   23.3790 C.2    98  TYR98       0.2290
     96  O        -15.2690   10.8870   24.5060 O.2    98  TYR98      -0.2864
     97  CB       -13.2250    8.6690   23.0790 C.3    98  TYR98       0.0560
     98  CG       -12.4790    8.9650   24.3390 C.ar   98  TYR98      -0.0198
     99  CD1      -12.2730    7.9770   25.3040 C.ar   98  TYR98      -0.0009
    100  CD2      -11.9670   10.2240   24.5760 C.ar   98  TYR98      -0.0009
    101  CE1      -11.5740    8.2470   26.4900 C.ar   98  TYR98       0.0417
    102  CE2      -11.2790   10.5120   25.7420 C.ar   98  TYR98       0.0417
    103  CZ       -11.0840    9.5120   26.7000 C.ar   98  TYR98       0.1957
    104  OH       -10.3990    9.8170   27.8550 O.3    98  TYR98      -0.2866
    105  N        -16.1670    6.9040   26.7240 N.3   103  THR103     -0.1203
    106  CA       -16.2560    5.4770   26.8520 C.3   103  THR103      0.1994
    107  C        -16.5530    5.1550   28.3150 C.2   103  THR103      0.2617
    108  O        -17.1670    4.1460   28.6100 O.2   103  THR103     -0.2717
    109  CB       -14.9750    4.8090   26.4070 C.3   103  THR103      0.1784
    110  OG1      -13.9490    5.1180   27.3410 O.3   103  THR103     -0.2211
    111  CG2      -14.5530    5.3090   25.0170 C.3   103  THR103      0.0376
    112  N        -16.1240    6.0350   29.2210 N.am  104  TRP104     -0.1975
    113  CA       -16.4160    5.9020   30.6600 C.3   104  TRP104      0.1640
    114  C        -17.4210    6.9590   31.1110 C.2   104  TRP104      0.2290
    115  O        -17.5650    8.0010   30.4770 O.2   104  TRP104     -0.2864
    116  CB       -15.1290    6.0010   31.4920 C.3   104  TRP104      0.0576
    117  CG       -13.9910    5.2030   30.9120 C.ar  104  TRP104      0.0006
    118  CD1      -12.9180    5.6910   30.2230 C.ar  104  TRP104      0.0946
    119  CD2      -13.8230    3.7740   30.9560 C.ar  104  TRP104      0.0152
    120  NE1      -12.0860    4.6580   29.8460 N.ar  104  TRP104     -0.2442
    121  CE2      -12.6150    3.4740   30.2800 C.ar  104  TRP104      0.0810
    122  CE3      -14.5690    2.7250   31.5010 C.ar  104  TRP104      0.0012
    123  CZ2      -12.1460    2.1770   30.1290 C.ar  104  TRP104      0.0191
    124  CZ3      -14.0970    1.4340   31.3510 C.ar  104  TRP104      0.0001
    125  CH2      -12.8930    1.1740   30.6740 C.ar  104  TRP104      0.0015
    126  N        -19.2870    1.7220   13.3780 N.3   193  SER193     -0.1217
    127  CA       -18.2810    2.4530   12.6100 C.3   193  SER193      0.1889
    128  C        -18.7630    2.7790   11.1710 C.2   193  SER193      0.2288
    129  O        -18.1630    3.6030   10.4830 O.2   193  SER193     -0.2866
    130  CB       -16.9680    1.6660   12.5730 C.3   193  SER193      0.2089
    131  OG       -17.1720    0.3290   12.1520 O.3   193  SER193     -0.2183
    132  N        -22.1730   11.9080   15.8680 N.3   218  ASP218     -0.1239
    133  CA       -20.9900   11.0310   15.8130 C.3   218  ASP218      0.1674
    134  C        -21.0200   10.2930   14.4480 C.2   218  ASP218      0.2266
    135  O        -21.8140    9.3560   14.2450 O.2   218  ASP218     -0.2867
    136  CB       -21.0140   10.0610   17.0150 C.3   218  ASP218      0.1410
    137  CG       -19.8870    8.9960   16.9800 C.2   218  ASP218      0.3668
    138  OD1      -19.0300    9.0170   16.0520 O.co2 218  ASP218     -0.2456
    139  OD2      -19.8730    8.1220   17.9030 O.co2 218  ASP218     -0.2456
@<TRIPOS>BOND
     1   129   128    2
     2    60    59    1
     3   128   127    1
     4    55    56    1
     5   131   130    1
     6    59    56    1
     7    59    61    1
     8   130   127    1
     9   127   126    1
    10    56    57    1
    11    58    57    2
    12    84    83    1
    13    84    85    1
    14    83    82    1
    15    57    62   am
    16    72    70    1
    17   135   134    2
    18   134   133    1
    19    71    70    1
    20    62    63    1
    21    82    81    1
    22    70    67    1
    23   133   132    1
    24   133   136    1
    25   138   137   ar
    26    66    67    1
    27    66    64   am
    28    63    64    1
    29    81    78    1
    30    67    68    1
    31    64    65    2
    32   137   136    1
    33   137   139   ar
    34    27    26    1
    35     4     3    2
    36     1     2    1
    37    68    69    2
    38    68    73   am
    39    17    16    1
    40    78    77    1
    41    78    79    1
    42    77    75   am
    43    73    74    1
    44     3     2    1
    45     3    12   am
    46    26    25    2
    47    26    28    1
    48    16    13    1
    49    25    24    1
    50    13    12    1
    51    13    14    1
    52     2     5    1
    53    79    86   am
    54    79    80    2
    55    75    74    1
    56    75    76    2
    57    91    90    1
    58    86    87    1
    59    23    24    1
    60    23    22    1
    61     5     6    1
    62    18    14   am
    63    18    19    1
    64    14    15    2
    65    21    20    2
    66    87    90    1
    67    87    88    1
    68    90    92    1
    69    22    19    1
    70    19    20    1
    71    32    31    2
    72     6     7    1
    73    20    29   am
    74    31    30    1
    75     7     8    1
    76    88    93   am
    77    88    89    2
    78    93    94    1
    79    40    37    1
    80    40    41    1
    81    37    36    1
    82    37    38    1
    83    29    30    1
    84    29    35    1
    85    30    33    1
    86     8     9    2
    87    44    38   am
    88    44    45    1
    89    38    39    2
    90    97    94    1
    91    97    98    1
    92    94    95    1
    93    35    34    1
    94    41    43   ar
    95    41    42   ar
    96    95    96    2
    97    11     9    1
    98    48    45    1
    99    33    34    1
   100    45    46    1
   101     9    10    1
   102    98   100   ar
   103    98    99   ar
   104   100   102   ar
   105   111   109    1
   106    54    53    1
   107    99   101   ar
   108    46    47    2
   109    53    50    1
   110   102   103   ar
   111   109   106    1
   112   109   110    1
   113   101   103   ar
   114    49    50    1
   115   103   104    1
   116   105   106    1
   117    50    51    1
   118   106   107    1
   119    52    51    2
   120   107   108    2
   121   107   112   am
   122   112   113    1
   123   120   118   ar
   124   120   121   ar
   125   123   121   ar
   126   123   125   ar
   127   118   117   ar
   128   121   119   ar
   129   115   114    2
   130   113   114    1
   131   113   116    1
   132   125   124   ar
   133   117   119   ar
   134   117   116    1
   135   119   122   ar
   136   124   122   ar
