@<TRIPOS>MOLECULE
tmp/3b71C00.pdb
 115 106 0 0 0
SMALL
GASTEIGER

@<TRIPOS>ATOM
      1  N         24.4160   86.7120   31.8950 N.3    43  VAL43      -0.1245
      2  CA        24.2020   87.1010   33.2880 C.3    43  VAL43       0.1561
      3  C         24.0880   88.6270   33.4090 C.2    43  VAL43       0.2260
      4  O         23.0370   89.1310   33.7930 O.2    43  VAL43      -0.2867
      5  CB        25.2290   86.5040   34.2390 C.3    43  VAL43       0.0252
      6  CG1       24.9150   86.9180   35.6740 C.3    43  VAL43       0.0019
      7  CG2       25.2140   84.9990   34.1050 C.3    43  VAL43       0.0019
      8  N         20.8860   90.1060   32.1410 N.3    46  VAL46      -0.1231
      9  CA        19.7940   90.0200   33.1140 C.3    46  VAL46       0.1692
     10  C         19.9320   91.1020   34.1690 C.2    46  VAL46       0.2591
     11  O         18.9400   91.7210   34.5610 O.2    46  VAL46      -0.2718
     12  CB        19.7630   88.6620   33.8530 C.3    46  VAL46       0.0266
     13  CG1       18.4610   88.4940   34.6120 C.3    46  VAL46       0.0020
     14  CG2       19.9240   87.5200   32.9020 C.3    46  VAL46       0.0020
     15  N         21.1520   91.3230   34.6500 N.am   47  LYS47      -0.1980
     16  CA        21.3880   92.4650   35.5240 C.3    47  LYS47       0.1596
     17  C         20.6550   93.6970   34.9490 C.2    47  LYS47       0.2287
     18  O         19.9940   94.4300   35.6860 O.2    47  LYS47      -0.2864
     19  CB        22.9020   92.7410   35.7250 C.3    47  LYS47       0.0298
     20  CG        23.5010   92.3260   37.1070 C.3    47  LYS47       0.0038
     21  CD        24.0900   90.8660   37.1520 C.3    47  LYS47       0.0206
     22  CE        25.6250   90.7860   36.8850 C.3    47  LYS47       0.1093
     23  NZ        26.4790   91.6520   37.7960 N.3    47  LYS47      -0.1314
     24  N         17.1430   93.5840   35.6930 N.3    50  GLY50      -0.1210
     25  CA        16.9390   93.8700   37.1260 C.3    50  GLY50       0.1956
     26  C         17.0430   95.3490   37.4580 C.2    50  GLY50       0.2611
     27  O         16.1980   95.9040   38.1590 O.2    50  GLY50      -0.2717
     28  N         18.0910   95.9820   36.9430 N.am   51  LEU51      -0.1979
     29  CA        18.2560   97.4280   37.0000 C.3    51  LEU51       0.1596
     30  C         16.9840   98.1660   36.5530 C.2    51  LEU51       0.2287
     31  O         16.5090   99.0640   37.2270 O.2    51  LEU51      -0.2864
     32  CB        19.4640   97.8370   36.1370 C.3    51  LEU51       0.0297
     33  CG        20.8490   97.9200   36.8200 C.3    51  LEU51       0.0022
     34  CD1       21.9970   97.1920   36.0510 C.3    51  LEU51       0.0001
     35  CD2       21.1960   99.4090   37.0780 C.3    51  LEU51       0.0001
     36  N         14.0140   97.0740   36.2790 N.3    53  LEU53      -0.1231
     37  CA        12.9220   96.7420   37.1570 C.3    53  LEU53       0.1693
     38  C         13.0180   97.5680   38.4370 C.2    53  LEU53       0.2591
     39  O         12.0360   98.1800   38.9040 O.2    53  LEU53      -0.2718
     40  CB        12.9210   95.2620   37.5010 C.3    53  LEU53       0.0284
     41  CG        11.6860   94.9010   38.3360 C.3    53  LEU53       0.0019
     42  CD1       10.4030   95.4110   37.6980 C.3    53  LEU53       0.0001
     43  CD2       11.5600   93.3990   38.6180 C.3    53  LEU53       0.0001
     44  N         14.2000   97.5910   39.0170 N.am   54  ARG54      -0.1980
     45  CA        14.3570   98.3300   40.2360 C.3    54  ARG54       0.1597
     46  C         13.9330   99.7710   40.0420 C.2    54  ARG54       0.2287
     47  O         13.2560  100.3260   40.8880 O.2    54  ARG54      -0.2864
     48  CB        15.7870   98.2410   40.7320 C.3    54  ARG54       0.0334
     49  CG        15.9910   98.8580   42.0720 C.3    54  ARG54       0.0492
     50  CD        16.7040  100.1950   41.9270 C.3    54  ARG54       0.2205
     51  NE        18.0900  100.1470   41.4100 N.pl3  54  ARG54      -0.0865
     52  CZ        19.0660   99.3060   41.7900 C.cat  54  ARG54       0.5346
     53  NH1       18.8710   98.3120   42.6700 N.pl3  54  ARG54       0.1354
     54  NH2       20.2650   99.4440   41.2400 N.pl3  54  ARG54       0.1354
     55  N          9.9360  100.0290   40.0190 N.3    57  LEU57      -0.1245
     56  CA         9.2450   99.9620   41.3030 C.3    57  LEU57       0.1561
     57  C          9.4810  101.2220   42.0910 C.2    57  LEU57       0.2260
     58  O          8.5390  101.7490   42.6720 O.2    57  LEU57      -0.2867
     59  CB         9.6540   98.7350   42.1030 C.3    57  LEU57       0.0270
     60  CG         9.5090   97.4240   41.3180 C.3    57  LEU57       0.0019
     61  CD1       10.7370   96.5770   41.5920 C.3    57  LEU57       0.0001
     62  CD2        8.1750   96.6820   41.6040 C.3    57  LEU57       0.0001
     63  N          8.0090   91.0950   41.0050 N.3    83  ASN83      -0.1240
     64  CA         9.1220   90.5310   41.7400 C.3    83  ASN83       0.1653
     65  C          9.2780   89.0130   41.6160 C.2    83  ASN83       0.2266
     66  O         10.4040   88.4920   41.4700 O.2    83  ASN83      -0.2867
     67  CB         9.0360   90.9090   43.1910 C.3    83  ASN83       0.1155
     68  CG        10.0040   91.9890   43.5440 C.2    83  ASN83       0.2627
     69  OD1       10.9540   91.7560   44.3080 O.2    83  ASN83      -0.2716
     70  ND2        9.8020   93.1770   42.9850 N.am   83  ASN83      -0.0877
     71  N         10.4210   88.3640   38.1710 N.3    86  LEU86      -0.1231
     72  CA        11.8690   88.4560   38.1610 C.3    86  LEU86       0.1693
     73  C         12.5230   87.2420   38.7990 C.2    86  LEU86       0.2592
     74  O         13.4540   86.6840   38.2160 O.2    86  LEU86      -0.2718
     75  CB        12.3400   89.6870   38.8910 C.3    86  LEU86       0.0284
     76  CG        13.8530   89.7740   38.8370 C.3    86  LEU86       0.0019
     77  CD1       14.2830   89.7640   37.3960 C.3    86  LEU86       0.0001
     78  CD2       14.3080   91.0290   39.5180 C.3    86  LEU86       0.0001
     79  N         12.0520   86.8460   39.9900 N.am   87  GLY87      -0.1957
     80  CA        12.6320   85.7200   40.7430 C.3    87  GLY87       0.1869
     81  C         12.7060   84.4650   39.9010 C.2    87  GLY87       0.2309
     82  O         13.6890   83.7150   39.9780 O.2    87  GLY87      -0.2863
     83  N         15.5770   84.6920   37.5120 N.3    90  ILE90      -0.1231
     84  CA        16.8930   84.5010   38.0930 C.3    90  ILE90       0.1692
     85  C         17.1660   83.0070   38.2330 C.2    90  ILE90       0.2592
     86  O         18.2890   82.5260   37.9240 O.2    90  ILE90      -0.2718
     87  CB        17.0590   85.2620   39.4260 C.3    90  ILE90       0.0266
     88  CG1       17.0360   86.7850   39.1690 C.3    90  ILE90       0.0019
     89  CG2       18.3380   84.8190   40.1680 C.3    90  ILE90       0.0020
     90  CD1       17.3940   87.6690   40.3890 C.3    90  ILE90       0.0001
     91  N         16.1240   82.2760   38.6500 N.am   91  ASN91      -0.1974
     92  CA        16.2240   80.8300   38.8190 C.3    91  ASN91       0.1688
     93  C         16.6260   80.1440   37.5530 C.2    91  ASN91       0.2292
     94  O         17.3940   79.2010   37.5920 O.2    91  ASN91      -0.2864
     95  CB        14.9070   80.2230   39.2800 C.3    91  ASN91       0.1181
     96  CG        14.4650   80.7340   40.6380 C.2    91  ASN91       0.2629
     97  OD1       15.1140   81.5910   41.2580 O.2    91  ASN91      -0.2716
     98  ND2       13.3520   80.2020   41.1140 N.am   91  ASN91      -0.0877
     99  N         18.1790   81.4280   35.0650 N.3    93  MET93      -0.1230
    100  CA        19.5510   81.8490   34.8020 C.3    93  MET93       0.1702
    101  C         20.4920   80.9580   35.6020 C.2    93  MET93       0.2592
    102  O         21.2640   80.2070   35.0040 O.2    93  MET93      -0.2718
    103  CB        19.7360   83.3110   35.1470 C.3    93  MET93       0.0401
    104  CG        21.1020   83.8430   34.8610 C.3    93  MET93       0.0596
    105  SD        21.3960   85.2860   35.9180 S.3    93  MET93      -0.1393
    106  CE        21.4400   84.5230   37.5510 C.3    93  MET93       0.0692
    107  N         20.3860   80.9770   36.9350 N.am   94  LYS94      -0.1980
    108  CA        21.2160   80.0980   37.7740 C.3    94  LYS94       0.1596
    109  C         21.3400   78.6710   37.1990 C.2    94  LYS94       0.2287
    110  O         22.4040   78.0620   37.2520 O.2    94  LYS94      -0.2864
    111  CB        20.7380   80.0760   39.2390 C.3    94  LYS94       0.0298
    112  CG        21.1520   81.3150   40.1090 C.3    94  LYS94       0.0038
    113  CD        22.6130   81.2540   40.6440 C.3    94  LYS94       0.0206
    114  CE        22.9410   82.3670   41.6650 C.3    94  LYS94       0.1093
    115  NZ        22.8040   83.7990   41.1680 N.3    94  LYS94      -0.1314
@<TRIPOS>BOND
     1     1     2    1
     2     8     9    1
     3    14    12    1
     4     9    12    1
     5     9    10    1
     6     2     3    1
     7     2     5    1
     8     3     4    2
     9    12    13    1
    10     7     5    1
    11    10    11    2
    12    10    15   am
    13     5     6    1
    14    15    16    1
    15   100    99    1
    16   100   103    1
    17   100   101    1
    18   104   103    1
    19   104   105    1
    20    17    16    1
    21    17    18    2
    22   102   101    2
    23    16    19    1
    24   101   107   am
    25    24    25    1
    26    19    20    1
    27   105   106    1
    28    34    33    1
    29    32    33    1
    30    32    29    1
    31    36    37    1
    32    30    29    1
    33    30    31    2
    34    33    35    1
    35    22    21    1
    36    22    23    1
    37   107   108    1
    38    28    29    1
    39    28    26   am
    40    20    21    1
    41    25    26    1
    42    37    40    1
    43    37    38    1
    44   109   110    2
    45   109   108    1
    46    77    76    1
    47    26    27    2
    48    40    41    1
    49    83    84    1
    50    93    94    2
    51    93    92    1
    52    42    41    1
    53   108   111    1
    54    86    85    2
    55    84    85    1
    56    84    87    1
    57    72    71    1
    58    72    73    1
    59    72    75    1
    60    74    73    2
    61    85    91   am
    62    41    43    1
    63    38    39    2
    64    38    44   am
    65    91    92    1
    66    73    79   am
    67    92    95    1
    68    76    75    1
    69    76    78    1
    70    44    45    1
    71    88    87    1
    72    88    90    1
    73   111   112    1
    74    95    96    1
    75    87    89    1
    76    81    82    2
    77    81    80    1
    78    79    80    1
    79    55    56    1
    80    46    45    1
    81    46    47    2
    82   112   113    1
    83    45    48    1
    84    96    98   am
    85    96    97    2
    86   113   114    1
    87    48    49    1
    88    63    64    1
    89   115   114    1
    90    54    52    1
    91    56    57    1
    92    56    59    1
    93    60    61    1
    94    60    62    1
    95    60    59    1
    96    51    52    2
    97    51    50    1
    98    66    65    2
    99    65    64    1
   100    64    67    1
   101    52    53    1
   102    50    49    1
   103    57    58    2
   104    70    68   am
   105    67    68    1
   106    68    69    2
