@<TRIPOS>MOLECULE
tmp/3b71A00.pdb
 117 109 0 0 0
SMALL
GASTEIGER

@<TRIPOS>ATOM
      1  N         25.8810   37.9240   29.3970 N.3    10  TYR10      -0.1241
      2  CA        26.3260   37.3120   28.1660 C.3    10  TYR10       0.1605
      3  C         27.8730   37.1790   28.0570 C.2    10  TYR10       0.2264
      4  O         28.3630   36.1500   27.5760 O.2    10  TYR10      -0.2867
      5  CB        25.7230   38.0590   26.9880 C.3    10  TYR10       0.0534
      6  CG        26.1800   37.5070   25.6820 C.ar   10  TYR10      -0.0201
      7  CD1       27.4430   37.8600   25.1660 C.ar   10  TYR10      -0.0009
      8  CD2       25.3770   36.6350   24.9510 C.ar   10  TYR10      -0.0009
      9  CE1       27.8940   37.3580   23.9620 C.ar   10  TYR10       0.0417
     10  CE2       25.8100   36.1220   23.7380 C.ar   10  TYR10       0.0417
     11  CZ        27.0760   36.4810   23.2560 C.ar   10  TYR10       0.1957
     12  OH        27.5480   35.9700   22.0690 O.3    10  TYR10      -0.2866
     13  N         29.6600   33.6220   28.1570 N.3    14  THR14      -0.1218
     14  CA        30.6410   33.2950   27.1400 C.3    14  THR14       0.1862
     15  C         31.9670   32.8330   27.7590 C.2    14  THR14       0.2287
     16  O         32.4400   31.7410   27.4750 O.2    14  THR14      -0.2866
     17  CB        30.8800   34.4830   26.2880 C.3    14  THR14       0.1770
     18  OG1       29.6950   34.7370   25.5330 O.3    14  THR14      -0.2211
     19  CG2       32.0270   34.2490   25.3450 C.3    14  THR14       0.0375
     20  N         31.7800   29.5070   29.2360 N.3    17  VAL17      -0.1231
     21  CA        31.6590   28.4820   28.2500 C.3    17  VAL17       0.1692
     22  C         33.0140   28.2530   27.6130 C.2    17  VAL17       0.2591
     23  O         33.4600   27.1180   27.5570 O.2    17  VAL17      -0.2718
     24  CB        30.5930   28.8030   27.2140 C.3    17  VAL17       0.0266
     25  CG1       30.6500   27.8010   26.0440 C.3    17  VAL17       0.0020
     26  CG2       29.2190   28.7630   27.8780 C.3    17  VAL17       0.0020
     27  N         33.6780   29.3150   27.1550 N.am   18  LYS18      -0.1980
     28  CA        35.0540   29.1920   26.6680 C.3    18  LYS18       0.1596
     29  C         35.9230   28.4360   27.6930 C.2    18  LYS18       0.2287
     30  O         36.7430   27.5840   27.3390 O.2    18  LYS18      -0.2864
     31  CB        35.6760   30.5570   26.3720 C.3    18  LYS18       0.0298
     32  CG        35.1880   31.2640   25.0940 C.3    18  LYS18       0.0038
     33  CD        36.2850   32.2840   24.5250 C.3    18  LYS18       0.0206
     34  CE        35.8460   33.1020   23.1820 C.3    18  LYS18       0.1093
     35  NZ        34.9310   34.3260   23.4310 N.3    18  LYS18      -0.1314
     36  N         35.1420   26.0900   29.8740 N.3    20  VAL20      -0.1231
     37  CA        34.8510   24.6690   29.7710 C.3    20  VAL20       0.1692
     38  C         35.4710   24.1210   28.4940 C.2    20  VAL20       0.2591
     39  O         36.0940   23.0610   28.4970 O.2    20  VAL20      -0.2718
     40  CB        33.3290   24.4070   29.7340 C.3    20  VAL20       0.0266
     41  CG1       33.0490   23.0210   29.3330 C.3    20  VAL20       0.0020
     42  CG2       32.6980   24.6390   31.0780 C.3    20  VAL20       0.0020
     43  N         35.3300   24.8480   27.3920 N.am   21  ILE21      -0.1980
     44  CA        35.8660   24.3540   26.1200 C.3    21  ILE21       0.1595
     45  C         37.3840   24.1820   26.1710 C.2    21  ILE21       0.2287
     46  O         37.9080   23.1170   25.9060 O.2    21  ILE21      -0.2864
     47  CB        35.4590   25.2410   24.9740 C.3    21  ILE21       0.0276
     48  CG1       33.9230   25.2300   24.8510 C.3    21  ILE21       0.0022
     49  CG2       36.0840   24.7340   23.7570 C.3    21  ILE21       0.0022
     50  CD1       33.3380   26.1400   23.8040 C.3    21  ILE21       0.0001
     51  N         38.3280   21.1650   28.2840 N.3    24  SER24      -0.1202
     52  CA        38.0400   19.9510   27.5240 C.3    24  SER24       0.2020
     53  C         39.0620   19.6410   26.4750 C.2    24  SER24       0.2619
     54  O         39.5130   18.5040   26.3960 O.2    24  SER24      -0.2717
     55  CB        36.7010   20.0770   26.8640 C.3    24  SER24       0.2103
     56  OG        35.8500   20.7640   27.7540 O.3    24  SER24      -0.2182
     57  N         39.4440   20.6200   25.6640 N.am   25  SER25      -0.1951
     58  CA        40.3480   20.3120   24.5500 C.3    25  SER25       0.1924
     59  C         41.7270   19.8790   25.0530 C.2    25  SER25       0.2314
     60  O         42.4690   19.0840   24.4140 O.2    25  SER25      -0.2863
     61  CB        40.4660   21.5130   23.6490 C.3    25  SER25       0.2116
     62  OG        40.1240   22.6580   24.3880 O.3    25  SER25      -0.2180
     63  N         36.9090   11.1730   31.5100 N.3   103  LYS103     -0.1245
     64  CA        35.6420   11.1220   30.7930 C.3   103  LYS103      0.1561
     65  C         34.5000   11.7170   31.6140 C.2   103  LYS103      0.2260
     66  O         33.6850   12.4750   31.1070 O.2   103  LYS103     -0.2867
     67  CB        35.3000    9.6940   30.4190 C.3   103  LYS103      0.0271
     68  CG        35.7220    9.2770   29.0450 C.3   103  LYS103      0.0035
     69  CD        34.9770    7.9840   28.6920 C.3   103  LYS103      0.0206
     70  CE        33.4300    8.1650   28.7340 C.3   103  LYS103      0.1093
     71  NZ        32.7180    7.0750   27.9600 N.3   103  LYS103     -0.1314
     72  N         34.6140   15.4230   31.7890 N.3   106  LEU106     -0.1231
     73  CA        34.1110   16.0150   30.5550 C.3   106  LEU106      0.1693
     74  C         32.6100   16.0090   30.5510 C.2   106  LEU106      0.2592
     75  O         31.9940   16.9910   30.1790 O.2   106  LEU106     -0.2718
     76  CB        34.6080   15.2520   29.3460 C.3   106  LEU106      0.0284
     77  CG        35.9020   15.7370   28.6900 C.3   106  LEU106      0.0019
     78  CD1       36.8940   16.3180   29.7000 C.3   106  LEU106      0.0001
     79  CD2       36.5590   14.5790   27.8570 C.3   106  LEU106      0.0001
     80  N         32.0110   14.9220   30.9970 N.am  107  THR107     -0.1953
     81  CA        30.5820   14.9170   31.1000 C.3   107  THR107      0.1897
     82  C         30.0860   16.0280   32.0240 C.2   107  THR107      0.2313
     83  O         29.1350   16.7340   31.6980 O.2   107  THR107     -0.2863
     84  CB        30.0770   13.5780   31.5420 C.3   107  THR107      0.1794
     85  OG1       30.6480   12.5730   30.6860 O.3   107  THR107     -0.2208
     86  CG2       28.5580   13.5640   31.4210 C.3   107  THR107      0.0378
     87  N         30.6300   19.6150   30.3670 N.3   110  HIS110     -0.1241
     88  CA        29.6050   19.7690   29.3570 C.3   110  HIS110      0.1621
     89  C         28.2250   20.0350   29.9960 C.2   110  HIS110      0.2264
     90  O         27.4720   20.8320   29.4620 O.2   110  HIS110     -0.2867
     91  CB        29.6430   18.5920   28.3890 C.3   110  HIS110      0.0745
     92  CG        30.9440   18.4850   27.6510 C.ar  110  HIS110      0.0817
     93  ND1       31.1670   17.5570   26.6550 N.ar  110  HIS110     -0.2268
     94  CD2       32.0860   19.2080   27.7570 C.ar  110  HIS110      0.1154
     95  CE1       32.3960   17.7050   26.1910 C.ar  110  HIS110      0.1986
     96  NE2       32.9720   18.7020   26.8410 N.ar  110  HIS110     -0.2212
     97  N         28.3890   23.8370   31.0650 N.3   113  ALA113     -0.1231
     98  CA        28.2140   24.7420   29.9350 C.3   113  ALA113      0.1694
     99  C         26.7510   24.7710   29.4930 C.2   113  ALA113      0.2591
    100  O         26.1730   25.8380   29.3680 O.2   113  ALA113     -0.2718
    101  CB        29.1170   24.3240   28.7870 C.3   113  ALA113      0.0304
    102  N         26.1490   23.6000   29.2990 N.am  114  VAL114     -0.1980
    103  CA        24.7460   23.5170   28.8990 C.3   114  VAL114      0.1595
    104  C         23.8470   24.3380   29.8220 C.2   114  VAL114      0.2287
    105  O         23.0170   25.1060   29.3420 O.2   114  VAL114     -0.2864
    106  CB        24.2600   22.0600   28.8440 C.3   114  VAL114      0.0276
    107  CG1       22.7360   21.9740   28.8810 C.3   114  VAL114      0.0022
    108  CG2       24.8160   21.3920   27.6100 C.3   114  VAL114      0.0022
    109  N         24.4010   28.0840   29.5950 N.3   117  LYS117     -0.1245
    110  CA        23.6890   28.4580   28.4120 C.3   117  LYS117      0.1561
    111  C         22.2140   28.5480   28.7590 C.2   117  LYS117      0.2260
    112  O         21.5390   29.4700   28.3010 O.2   117  LYS117     -0.2867
    113  CB        23.9540   27.4590   27.2800 C.3   117  LYS117      0.0271
    114  CG        23.7300   28.0450   25.8970 C.3   117  LYS117      0.0035
    115  CD        22.2100   27.9810   25.4620 C.3   117  LYS117      0.0206
    116  CE        21.6370   29.3900   25.0630 C.3   117  LYS117      0.1093
    117  NZ        21.9390   29.8190   23.6560 N.3   117  LYS117     -0.1314
@<TRIPOS>BOND
     1    12    11    1
     2    34    35    1
     3    34    33    1
     4    11    10   ar
     5    11     9   ar
     6    61    62    1
     7    61    58    1
     8   117   116    1
     9    10     8   ar
    10    49    47    1
    11    50    48    1
    12     9     7   ar
    13    60    59    2
    14    33    32    1
    15    58    59    1
    16    58    57    1
    17    48    47    1
    18     8     6   ar
    19    47    44    1
    20   116   115    1
    21    32    31    1
    22     7     6   ar
    23    19    17    1
    24   115   114    1
    25    18    17    1
    26    57    53   am
    27     6     5    1
    28   114   113    1
    29    46    45    2
    30    25    24    1
    31    44    45    1
    32    44    43    1
    33    95    93   ar
    34    95    96   ar
    35    17    14    1
    36    31    28    1
    37    54    53    2
    38    53    52    1
    39    93    92   ar
    40    28    27    1
    41    28    29    1
    42    96    94   ar
    43    55    52    1
    44    55    56    1
    45     5     2    1
    46    14    15    1
    47    14    13    1
    48    27    22   am
    49    24    26    1
    50    24    21    1
    51   113   110    1
    52    30    29    2
    53    43    38   am
    54    16    15    2
    55    52    51    1
    56    23    22    2
    57     4     3    2
    58   108   106    1
    59    22    21    1
    60    92    94   ar
    61    92    91    1
    62    79    77    1
    63    71    70    1
    64     3     2    1
    65     2     1    1
    66    21    20    1
    67   112   111    2
    68    91    88    1
    69   110   111    1
    70   110   109    1
    71    38    39    2
    72    38    37    1
    73    77    76    1
    74    77    78    1
    75    69    70    1
    76    69    68    1
    77   101    98    1
    78   106   107    1
    79   106   103    1
    80   103   102    1
    81   103   104    1
    82    68    67    1
    83   102    99   am
    84    41    40    1
    85   105   104    2
    86    76    73    1
    87    88    89    1
    88    88    87    1
    89   100    99    2
    90    90    89    2
    91    99    98    1
    92    40    37    1
    93    40    42    1
    94    37    36    1
    95    98    97    1
    96    75    74    2
    97    67    64    1
    98    74    73    1
    99    74    80   am
   100    73    72    1
   101    85    84    1
   102    64    63    1
   103    64    65    1
   104    80    81    1
   105    81    84    1
   106    81    82    1
   107    66    65    2
   108    86    84    1
   109    83    82    2
