@<TRIPOS>MOLECULE
tmp/3b71B00.pdb
 139 129 0 0 0
SMALL
GASTEIGER

@<TRIPOS>ATOM
      1  N         -1.4380   72.2970   49.1100 N.3    43  VAL43      -0.1245
      2  CA        -0.1870   71.7450   49.5110 C.3    43  VAL43       0.1561
      3  C         -0.1510   70.2090   49.3820 C.2    43  VAL43       0.2260
      4  O          0.7810   69.6740   48.7620 O.2    43  VAL43      -0.2867
      5  CB         0.2000   72.2370   50.8740 C.3    43  VAL43       0.0252
      6  CG1        1.5300   71.6390   51.2800 C.3    43  VAL43       0.0019
      7  CG2        0.2880   73.7440   50.8260 C.3    43  VAL43       0.0019
      8  N          0.1720   68.9300   45.6860 N.3    46  VAL46      -0.1231
      9  CA         1.5520   68.9760   45.2120 C.3    46  VAL46       0.1692
     10  C          2.3620   67.8300   45.7970 C.2    46  VAL46       0.2591
     11  O          3.2060   67.2470   45.0840 O.2    46  VAL46      -0.2718
     12  CB         2.2880   70.2400   45.6130 C.3    46  VAL46       0.0266
     13  CG1        3.6270   70.2580   44.9530 C.3    46  VAL46       0.0020
     14  CG2        1.4830   71.4760   45.2570 C.3    46  VAL46       0.0020
     15  N          2.1210   67.4960   47.0790 N.am   47  LYS47      -0.1980
     16  CA         2.8780   66.4190   47.6940 C.3    47  LYS47       0.1596
     17  C          2.6420   65.1810   46.8520 C.2    47  LYS47       0.2287
     18  O          3.6210   64.5250   46.4290 O.2    47  LYS47      -0.2864
     19  CB         2.4960   66.2000   49.1340 C.3    47  LYS47       0.0298
     20  CG         2.9650   67.3390   50.0220 C.3    47  LYS47       0.0038
     21  CD         3.2540   66.8300   51.4740 C.3    47  LYS47       0.0206
     22  CE         3.2630   67.9950   52.4770 C.3    47  LYS47       0.1093
     23  NZ         3.7580   67.3760   53.7190 N.3    47  LYS47      -0.1314
     24  N          4.6690   65.0990   43.9450 N.3    50  GLY50      -0.1210
     25  CA         6.0650   64.8390   44.2900 C.3    50  GLY50       0.1956
     26  C          6.2510   63.3560   44.5230 C.2    50  GLY50       0.2611
     27  O          7.2240   62.7390   44.0670 O.2    50  GLY50      -0.2717
     28  N          5.2950   62.7710   45.2390 N.am   51  LEU51      -0.1979
     29  CA         5.3180   61.3400   45.4700 C.3    51  LEU51       0.1596
     30  C          5.3940   60.6160   44.1400 C.2    51  LEU51       0.2287
     31  O          6.2690   59.7840   43.8760 O.2    51  LEU51      -0.2864
     32  CB         4.0710   60.9250   46.2350 C.3    51  LEU51       0.0297
     33  CG         4.1480   61.2360   47.7400 C.3    51  LEU51       0.0022
     34  CD1        2.8940   60.7140   48.4450 C.3    51  LEU51       0.0001
     35  CD2        5.3990   60.5910   48.3440 C.3    51  LEU51       0.0001
     36  N          6.2570   61.7270   41.3360 N.3    53  LEU53      -0.1231
     37  CA         7.4920   61.9420   40.6280 C.3    53  LEU53       0.1693
     38  C          8.5770   61.0690   41.1850 C.2    53  LEU53       0.2591
     39  O          9.3540   60.5210   40.4340 O.2    53  LEU53      -0.2718
     40  CB         7.9530   63.3760   40.6420 C.3    53  LEU53       0.0284
     41  CG         9.3180   63.4750   39.9390 C.3    53  LEU53       0.0019
     42  CD1        9.3620   62.8070   38.6160 C.3    53  LEU53       0.0001
     43  CD2        9.7430   64.9230   39.7550 C.3    53  LEU53       0.0001
     44  N          8.6260   60.9220   42.4960 N.am   54  ARG54      -0.1980
     45  CA         9.7330   60.2100   43.0700 C.3    54  ARG54       0.1597
     46  C          9.6580   58.7690   42.6520 C.2    54  ARG54       0.2287
     47  O         10.6710   58.1970   42.2340 O.2    54  ARG54      -0.2864
     48  CB         9.7210   60.3170   44.5680 C.3    54  ARG54       0.0334
     49  CG        11.0420   59.9290   45.1690 C.3    54  ARG54       0.0492
     50  CD        11.0420   60.2500   46.6320 C.3    54  ARG54       0.2205
     51  NE        10.0840   59.3750   47.2930 N.pl3  54  ARG54      -0.0865
     52  CZ         9.6320   59.5570   48.5310 C.cat  54  ARG54       0.5346
     53  NH1       10.0640   60.6000   49.2530 N.pl3  54  ARG54       0.1354
     54  NH2        8.7490   58.6870   49.0380 N.pl3  54  ARG54       0.1354
     55  N         11.0030   58.6120   39.1160 N.3    57  LEU57      -0.1245
     56  CA        12.4430   58.6960   38.9730 C.3    57  LEU57       0.1561
     57  C         13.1800   57.4300   39.4520 C.2    57  LEU57       0.2260
     58  O         14.1560   56.9510   38.8130 O.2    57  LEU57      -0.2867
     59  CB        12.9190   59.9180   39.7000 C.3    57  LEU57       0.0270
     60  CG        12.3740   61.1840   39.0610 C.3    57  LEU57       0.0019
     61  CD1       12.4780   62.3160   40.0760 C.3    57  LEU57       0.0001
     62  CD2       13.0740   61.5140   37.7370 C.3    57  LEU57       0.0001
     63  N         17.0180   65.0720   35.2440 N.3    80  LYS80      -0.1245
     64  CA        17.3100   66.3530   35.8690 C.3    80  LYS80       0.1561
     65  C         16.2040   67.3900   35.6260 C.2    80  LYS80       0.2260
     66  O         15.7860   68.1070   36.5480 O.2    80  LYS80      -0.2867
     67  CB        18.6350   66.8940   35.3430 C.3    80  LYS80       0.0271
     68  CG        19.8190   66.5630   36.1990 C.3    80  LYS80       0.0035
     69  CD        20.6030   65.3230   35.6840 C.3    80  LYS80       0.0206
     70  CE        22.0250   65.1860   36.3260 C.3    80  LYS80       0.1093
     71  NZ        22.6380   66.5160   36.5770 N.3    80  LYS80      -0.1314
     72  N         13.2000   67.0940   37.8410 N.3    83  ASN83      -0.1225
     73  CA        13.3570   67.7500   39.1560 C.3    83  ASN83       0.1785
     74  C         13.1330   69.2490   39.1000 C.2    83  ASN83       0.2597
     75  O         12.3280   69.7780   39.8640 O.2    83  ASN83      -0.2718
     76  CB        14.7080   67.4960   39.7870 C.3    83  ASN83       0.1169
     77  CG        14.7800   66.1380   40.5040 C.2    83  ASN83       0.2627
     78  OD1       14.9150   66.0550   41.7530 O.2    83  ASN83      -0.2716
     79  ND2       14.7020   65.0670   39.7200 N.am   83  ASN83      -0.0877
     80  N         13.8610   69.9320   38.2100 N.am   84  SER84      -0.1952
     81  CA        13.6500   71.3580   37.9140 C.3    84  SER84       0.1924
     82  C         12.1870   71.6820   37.5650 C.2    84  SER84       0.2314
     83  O         11.6650   72.7160   37.9250 O.2    84  SER84      -0.2863
     84  CB        14.5840   71.7770   36.7760 C.3    84  SER84       0.2116
     85  OG        13.8790   72.3090   35.6550 O.3    84  SER84      -0.2180
     86  N          9.8190   70.2270   38.8700 N.3    86  LEU86      -0.1231
     87  CA         9.2780   70.1830   40.2230 C.3    86  LEU86       0.1693
     88  C          9.7640   71.3580   41.0580 C.2    86  LEU86       0.2593
     89  O          8.9860   71.9690   41.7930 O.2    86  LEU86      -0.2718
     90  CB         9.6110   68.8660   40.8830 C.3    86  LEU86       0.0284
     91  CG         8.8850   68.6180   42.1950 C.3    86  LEU86       0.0019
     92  CD1        7.3280   68.4440   42.0790 C.3    86  LEU86       0.0001
     93  CD2        9.5120   67.4270   42.9450 C.3    86  LEU86       0.0001
     94  N         11.0310   71.7240   40.9220 N.am   87  GLY87      -0.1942
     95  CA        11.5010   72.9680   41.5310 C.3    87  GLY87       0.2014
     96  C         10.4700   74.0870   41.3620 C.2    87  GLY87       0.2638
     97  O          9.9420   74.6420   42.3440 O.2    87  GLY87      -0.2714
     98  N         10.1690   74.4000   40.1060 N.am   88  GLU88      -0.1977
     99  CA         9.2360   75.4700   39.7590 C.3    88  GLU88       0.1602
    100  C          7.8380   75.2660   40.3590 C.2    88  GLU88       0.2287
    101  O          7.2280   76.2300   40.8470 O.2    88  GLU88      -0.2864
    102  CB         9.1530   75.6310   38.2440 C.3    88  GLU88       0.0415
    103  CG         8.4670   76.9080   37.7900 C.3    88  GLU88       0.1163
    104  CD         8.2360   76.9460   36.2690 C.2    88  GLU88       0.3649
    105  OE1        9.2260   76.6630   35.5330 O.co2  88  GLU88      -0.2457
    106  OE2        7.0740   77.2470   35.8300 O.co2  88  GLU88      -0.2457
    107  N          7.1320   73.6640   43.1370 N.3    90  ILE90      -0.1231
    108  CA         7.2450   73.9830   44.5510 C.3    90  ILE90       0.1692
    109  C          7.3150   75.4980   44.7420 C.2    90  ILE90       0.2592
    110  O          6.5770   76.0590   45.5320 O.2    90  ILE90      -0.2718
    111  CB         8.4980   73.3060   45.1790 C.3    90  ILE90       0.0266
    112  CG1        8.2700   71.7950   45.4070 C.3    90  ILE90       0.0019
    113  CG2        8.9100   74.0220   46.4760 C.3    90  ILE90       0.0020
    114  CD1        9.5670   71.0130   45.6500 C.3    90  ILE90       0.0001
    115  N          8.1950   76.1510   43.9940 N.am   91  ASN91      -0.1974
    116  CA         8.4180   77.5770   44.1800 C.3    91  ASN91       0.1688
    117  C          7.1330   78.3330   44.1630 C.2    91  ASN91       0.2292
    118  O          6.9540   79.2750   44.9400 O.2    91  ASN91      -0.2864
    119  CB         9.3510   78.1540   43.1120 C.3    91  ASN91       0.1181
    120  CG        10.7690   77.7760   43.3470 C.2    91  ASN91       0.2629
    121  OD1       11.0650   77.0150   44.2720 O.2    91  ASN91      -0.2716
    122  ND2       11.6680   78.2960   42.5360 N.am   91  ASN91      -0.0877
    123  N          4.0100   77.0930   44.5670 N.3    93  MET93      -0.1182
    124  CA         3.1920   76.6930   45.7130 C.3    93  MET93       0.1917
    125  C          3.5330   77.5980   46.9100 C.2    93  MET93       0.2634
    126  O          2.6320   78.0350   47.6420 O.2    93  MET93      -0.2714
    127  CB         3.3870   75.2090   46.0370 C.2    93  MET93       0.0083
    128  CG         2.6330   74.7130   47.2490 C.2    93  MET93       0.0282
    129  SD         3.2140   73.0870   47.9300 S.3    93  MET93      -0.1125
    130  CE         4.9120   73.4220   48.4630 C.3    93  MET93       0.0742
    131  N          4.8110   77.9300   47.0880 N.am   94  LYS94      -0.1977
    132  CA         5.1820   78.7550   48.2340 C.3    94  LYS94       0.1596
    133  C          4.5450   80.1210   48.1120 C.2    94  LYS94       0.2287
    134  O          4.1280   80.7120   49.1170 O.2    94  LYS94      -0.2864
    135  CB         6.6900   78.9450   48.3480 C.3    94  LYS94       0.0298
    136  CG         7.5000   77.6850   48.3310 C.3    94  LYS94       0.0038
    137  CD         7.2480   76.8540   49.5560 C.3    94  LYS94       0.0206
    138  CE         8.5190   76.0870   49.9380 C.3    94  LYS94       0.1093
    139  NZ         8.5660   75.8130   51.4120 N.3    94  LYS94      -0.1314
@<TRIPOS>BOND
     1    63    64    1
     2    67    64    1
     3    67    68    1
     4   105   104   ar
     5    65    64    1
     6    65    66    2
     7    85    84    1
     8    69    68    1
     9    69    70    1
    10   106   104   ar
    11   104   103    1
    12    70    71    1
    13    84    81    1
    14    82    81    1
    15    82    83    2
    16    62    60    1
    17   103   102    1
    18    72    73    1
    19    81    80    1
    20    80    74   am
    21   102    99    1
    22    42    41    1
    23    58    57    2
    24    86    87    1
    25    56    55    1
    26    56    57    1
    27    56    59    1
    28    60    59    1
    29    60    61    1
    30    74    73    1
    31    74    75    2
    32    73    76    1
    33    79    77   am
    34    43    41    1
    35    99    98    1
    36    99   100    1
    37    76    77    1
    38    41    40    1
    39    98    96   am
    40    87    90    1
    41    87    88    1
    42   100   101    2
    43    39    38    2
    44    77    78    2
    45    37    40    1
    46    37    38    1
    47    37    36    1
    48    90    91    1
    49    94    88   am
    50    94    95    1
    51    88    89    2
    52    38    44   am
    53    96    95    1
    54    96    97    2
    55    92    91    1
    56    91    93    1
    57    47    46    2
    58    44    45    1
    59   122   120   am
    60    46    45    1
    61    45    48    1
    62   119   120    1
    63   119   116    1
    64   107   108    1
    65   120   121    2
    66    31    30    2
    67    24    25    1
    68   115   116    1
    69   115   109   am
    70    27    26    2
    71    30    29    1
    72   117   116    1
    73   117   118    2
    74    25    26    1
    75    26    28   am
    76   108   109    1
    77   108   111    1
    78   123   124    1
    79    48    49    1
    80   109   110    2
    81    13    12    1
    82    11    10    2
    83    49    50    1
    84   111   112    1
    85   111   113    1
    86     9    12    1
    87     9     8    1
    88     9    10    1
    89    28    29    1
    90    14    12    1
    91   112   114    1
    92    29    32    1
    93   124   127    1
    94   124   125    1
    95    10    15   am
    96   127   128    2
    97    32    33    1
    98    18    17    2
    99    50    51    1
   100    17    16    1
   101   125   131   am
   102   125   126    2
   103    15    16    1
   104   131   132    1
   105   128   129    1
   106    51    52    2
   107    16    19    1
   108    33    35    1
   109    33    34    1
   110   129   130    1
   111   133   132    1
   112   133   134    2
   113   132   135    1
   114   136   135    1
   115   136   137    1
   116    52    54    1
   117    52    53    1
   118     4     3    2
   119     1     2    1
   120    19    20    1
   121     3     2    1
   122     2     5    1
   123   137   138    1
   124   138   139    1
   125    20    21    1
   126     7     5    1
   127     5     6    1
   128    21    22    1
   129    22    23    1
