@<TRIPOS>MOLECULE
tmp/3b7gA00.pdb
 132 129 0 0 0
SMALL
GASTEIGER

@<TRIPOS>ATOM
      1  N        -12.5430    7.1180   24.5080 N.3     3  PHE3       -0.1241
      2  CA       -12.3160    6.5190   23.2000 C.3     3  PHE3        0.1605
      3  C        -11.4040    5.2780   23.2820 C.2     3  PHE3        0.2264
      4  O        -11.4690    4.4080   22.4180 O.2     3  PHE3       -0.2867
      5  CB       -11.8250    7.5720   22.1980 C.3     3  PHE3        0.0534
      6  CG       -12.9320    8.4860   21.6740 C.ar    3  PHE3       -0.0203
      7  CD1      -13.7520    8.0780   20.6290 C.ar    3  PHE3       -0.0042
      8  CD2      -13.1570    9.7370   22.2450 C.ar    3  PHE3       -0.0042
      9  CE1      -14.7630    8.9000   20.1450 C.ar    3  PHE3       -0.0003
     10  CE2      -14.1610   10.5610   21.7670 C.ar    3  PHE3       -0.0003
     11  CZ       -14.9620   10.1420   20.7030 C.ar    3  PHE3       -0.0000
     12  N         -8.1200   17.0770   18.3250 N.3    19  ALA19      -0.1231
     13  CA        -9.2490   17.7330   17.6650 C.3    19  ALA19       0.1694
     14  C        -10.3900   18.1120   18.6250 C.2    19  ALA19       0.2593
     15  O        -11.4100   18.6340   18.1920 O.2    19  ALA19      -0.2718
     16  CB        -9.7730   16.8560   16.5350 C.3    19  ALA19       0.0304
     17  N        -10.2220   17.8610   19.9190 N.am   20  GLY20      -0.1942
     18  CA       -11.2120   18.2560   20.9150 C.3    20  GLY20       0.2014
     19  C        -12.2550   17.2140   21.2920 C.2    20  GLY20       0.2639
     20  O        -13.2040   17.5340   22.0170 O.2    20  GLY20      -0.2714
     21  N        -12.0950   15.9770   20.8190 N.am   21  PHE21      -0.1959
     22  CA       -13.0720   14.9050   21.0940 C.3    21  PHE21       0.1771
     23  C        -12.6360   14.1300   22.3390 C.2    21  PHE21       0.2619
     24  O        -11.9000   13.1540   22.2270 O.2    21  PHE21      -0.2715
     25  CB       -13.1840   13.9260   19.9130 C.3    21  PHE21       0.0574
     26  CG       -13.6530   14.5450   18.6200 C.ar   21  PHE21      -0.0200
     27  CD1      -14.9580   14.4020   18.2090 C.ar   21  PHE21      -0.0042
     28  CD2      -12.7730   15.2120   17.7910 C.ar   21  PHE21      -0.0042
     29  CE1      -15.3860   14.9420   17.0040 C.ar   21  PHE21      -0.0003
     30  CE2      -13.1970   15.7590   16.5810 C.ar   21  PHE21      -0.0003
     31  CZ       -14.5000   15.6090   16.1820 C.ar   21  PHE21      -0.0000
     32  N        -13.0800   14.5440   23.5250 N.am   22  GLU22      -0.1963
     33  CA       -12.5760   13.9080   24.7590 C.3    22  GLU22       0.1733
     34  C        -13.3300   12.6480   25.1950 C.2    22  GLU22       0.2616
     35  O        -12.7060   11.6750   25.6420 O.2    22  GLU22      -0.2715
     36  CB       -12.5090   14.9070   25.9100 C.3    22  GLU22       0.0429
     37  CG       -11.4620   14.5230   26.9820 C.3    22  GLU22       0.1163
     38  CD       -10.0330   14.3240   26.4160 C.2    22  GLU22       0.3649
     39  OE1       -9.3160   15.3350   26.2300 O.co2  22  GLU22      -0.2457
     40  OE2       -9.6260   13.1540   26.1810 O.co2  22  GLU22      -0.2457
     41  N        -14.6570   12.6570   25.0740 N.am   23  ARG23      -0.1964
     42  CA       -15.4570   11.4690   25.4040 C.3    23  ARG23       0.1714
     43  C        -16.4770   11.1850   24.2890 C.2    23  ARG23       0.2458
     44  O        -17.0850   12.1200   23.7730 O.2    23  ARG23      -0.2730
     45  CB       -16.1780   11.6690   26.7370 C.3    23  ARG23       0.0347
     46  CG       -15.2760   12.1850   27.8740 C.3    23  ARG23       0.0492
     47  CD       -14.2050   11.1650   28.3300 C.3    23  ARG23       0.2205
     48  NE       -13.2910   11.7540   29.3320 N.pl3  23  ARG23      -0.0865
     49  CZ       -11.9550   11.8370   29.2410 C.cat  23  ARG23       0.5346
     50  NH1      -11.2820   11.3530   28.1940 N.pl3  23  ARG23       0.1354
     51  NH2      -11.2710   12.4020   30.2310 N.pl3  23  ARG23       0.1354
     52  N        -16.6790    9.9070   23.9350 N.am   24  PRO24      -0.2716
     53  CA       -17.6600    9.5840   22.8830 C.3    24  PRO24       0.1536
     54  C        -19.0970    9.8720   23.2800 C.2    24  PRO24       0.2599
     55  O        -19.4900    9.7230   24.4570 O.2    24  PRO24      -0.2715
     56  CB       -17.4660    8.0800   22.6340 C.3    24  PRO24       0.0310
     57  CG       -16.6640    7.5710   23.7800 C.3    24  PRO24       0.0237
     58  CD       -16.0030    8.7140   24.4680 C.3    24  PRO24       0.0939
     59  N        -19.8690   10.3080   22.2920 N.am   25  SER25      -0.1950
     60  CA       -21.2950   10.4960   22.4380 C.3    25  SER25       0.1924
     61  C        -21.9500    9.1040   22.5070 C.2    25  SER25       0.2314
     62  O        -21.3230    8.1010   22.1390 O.2    25  SER25      -0.2863
     63  CB       -21.8170   11.3040   21.2510 C.3    25  SER25       0.2116
     64  OG       -21.7960   10.5670   20.0160 O.3    25  SER25      -0.2180
     65  N        -21.6320    7.2790   19.2240 N.3    28  GLN28      -0.1245
     66  CA       -20.2410    6.9630   18.9670 C.3    28  GLN28       0.1566
     67  C        -19.8420    5.7310   19.7700 C.2    28  GLN28       0.2260
     68  O        -19.2420    4.8170   19.2140 O.2    28  GLN28      -0.2867
     69  CB       -19.3390    8.1730   19.2250 C.3    28  GLN28       0.0367
     70  CG       -19.6060    9.3290   18.2390 C.3    28  GLN28       0.0905
     71  CD       -19.0980   10.6940   18.6970 C.2    28  GLN28       0.2608
     72  OE1      -18.4700   10.8130   19.7550 O.2    28  GLN28      -0.2717
     73  NE2      -19.4110   11.7460   17.9110 N.am   28  GLN28      -0.0878
     74  N        -30.2110   15.0040   14.4740 N.3    47  SER47      -0.1202
     75  CA       -29.1000   15.9410   14.3940 C.3    47  SER47       0.2020
     76  C        -28.5680   16.2230   15.8000 C.2    47  SER47       0.2619
     77  O        -29.3130   16.1980   16.7740 O.2    47  SER47      -0.2717
     78  CB       -29.5220   17.2380   13.6940 C.3    47  SER47       0.2103
     79  OG       -30.6310   17.7690   14.3520 O.3    47  SER47      -0.2182
     80  N        -27.2710   16.4630   15.8940 N.am   48  GLY48      -0.1942
     81  CA       -26.6200   16.7770   17.1680 C.3    48  GLY48       0.2014
     82  C        -26.0000   15.5940   17.8880 C.2    48  GLY48       0.2640
     83  O        -25.3610   15.7860   18.9180 O.2    48  GLY48      -0.2714
     84  N        -26.1580   14.3810   17.3310 N.am   49  THR49      -0.1936
     85  CA       -25.7440   13.1420   17.9780 C.3    49  THR49       0.2028
     86  C        -24.2710   12.7420   17.7180 C.2    49  THR49       0.2643
     87  O        -23.7250   11.9120   18.4300 O.2    49  THR49      -0.2714
     88  CB       -26.6950   11.9460   17.5960 C.3    49  THR49       0.1808
     89  OG1      -26.8590   11.8470   16.1660 O.3    49  THR49      -0.2208
     90  CG2      -28.0630   12.1110   18.2410 C.3    49  THR49       0.0379
     91  N        -23.6420   13.3180   16.7080 N.am   50  GLY50      -0.1939
     92  CA       -22.2250   13.0720   16.4250 C.3    50  GLY50       0.2014
     93  C        -21.9560   12.0280   15.3610 C.2    50  GLY50       0.2639
     94  O        -20.9580   11.3160   15.4450 O.2    50  GLY50      -0.2714
     95  N        -22.8230   11.9620   14.3410 N.am   51  LYS51      -0.1963
     96  CA       -22.7610   10.9170   13.3240 C.3    51  LYS51       0.1728
     97  C        -21.5690   11.0600   12.3390 C.2    51  LYS51       0.2617
     98  O        -21.0430   10.0540   11.8730 O.2    51  LYS51      -0.2715
     99  CB       -24.0880   10.8640   12.5430 C.3    51  LYS51       0.0311
    100  CG       -25.2930   10.5080   13.4240 C.3    51  LYS51       0.0038
    101  CD       -26.5360   10.2560   12.6000 C.3    51  LYS51       0.0206
    102  CE       -27.0320   11.4760   11.8740 C.3    51  LYS51       0.1093
    103  NZ       -27.3490   12.6390   12.7590 N.3    51  LYS51      -0.1314
    104  N        -21.1540   12.2770   12.0140 N.am   52  THR52      -0.1937
    105  CA       -19.9750   12.4700   11.1320 C.3    52  THR52       0.2028
    106  C        -18.7010   11.9250   11.7780 C.2    52  THR52       0.2642
    107  O        -17.9030   11.2710   11.1230 O.2    52  THR52      -0.2714
    108  CB       -19.7790   13.9340   10.7080 C.3    52  THR52       0.1808
    109  OG1      -20.9690   14.3710   10.0500 O.3    52  THR52      -0.2208
    110  CG2      -18.6030   14.0920    9.7550 C.3    52  THR52       0.0379
    111  N        -18.5260   12.1790   13.0600 N.am   53  CYS53      -0.1967
    112  CA       -17.3740   11.6590   13.7620 C.3    53  CYS53       0.1712
    113  C        -17.4530   10.1370   13.9370 C.2    53  CYS53       0.2296
    114  O        -16.4190    9.4790   14.0430 O.2    53  CYS53      -0.2864
    115  CB       -17.2250   12.4020   15.0750 C.3    53  CYS53       0.0983
    116  SG       -17.3720   14.1820   14.7760 S.3    53  CYS53      -0.0798
    117  N        -17.6320   19.5980    4.7680 N.3    84  GLN84      -0.1245
    118  CA       -17.8100   19.3870    6.2110 C.3    84  GLN84       0.1566
    119  C        -17.1530   18.0460    6.6350 C.2    84  GLN84       0.2260
    120  O        -16.4180   17.9810    7.6150 O.2    84  GLN84      -0.2867
    121  CB       -19.3080   19.4640    6.5910 C.3    84  GLN84       0.0367
    122  CG       -19.9230   20.8810    6.4950 C.3    84  GLN84       0.0905
    123  CD       -21.4580   20.9770    6.6980 C.2    84  GLN84       0.2608
    124  OE1      -22.1950   19.9900    6.6100 O.2    84  GLN84      -0.2717
    125  NE2      -21.9250   22.1820    6.9750 N.am   84  GLN84      -0.0878
    126  N        -13.7320   17.2710    9.1870 N.3    88  VAL88      -0.1245
    127  CA       -13.7270   16.3760   10.3480 C.3    88  VAL88       0.1561
    128  C        -12.6540   15.3030   10.1970 C.2    88  VAL88       0.2260
    129  O        -11.8930   15.0270   11.1450 O.2    88  VAL88      -0.2867
    130  CB       -15.1300   15.7880   10.6400 C.3    88  VAL88       0.0252
    131  CG1      -15.0860   14.7910   11.8260 C.3    88  VAL88       0.0019
    132  CG2      -16.1250   16.9140   10.9440 C.3    88  VAL88       0.0019
@<TRIPOS>BOND
     1   117   118    1
     2   118   121    1
     3   118   119    1
     4   122   121    1
     5   122   123    1
     6   124   123    2
     7   119   120    2
     8   123   125   am
     9   126   127    1
    10   110   108    1
    11   109   108    1
    12   128   127    1
    13   128   129    2
    14   127   130    1
    15   130   132    1
    16   130   131    1
    17   108   105    1
    18   107   106    2
    19   105   106    1
    20   105   104    1
    21   106   111   am
    22    98    97    2
    23   102   101    1
    24   102   103    1
    25   104    97   am
    26    97    96    1
    27    99    96    1
    28    99   100    1
    29   101   100    1
    30   111   112    1
    31    96    95    1
    32    78    79    1
    33    78    75    1
    34   112   113    1
    35   112   115    1
    36   113   114    2
    37    95    93   am
    38    75    74    1
    39    75    76    1
    40   116   115    1
    41    93    94    2
    42    93    92    1
    43    76    80   am
    44    76    77    2
    45    80    81    1
    46    89    88    1
    47    31    30   ar
    48    31    29   ar
    49    92    91    1
    50    16    13    1
    51    30    28   ar
    52    91    86   am
    53    29    27   ar
    54    81    82    1
    55    84    82   am
    56    84    85    1
    57    88    85    1
    58    88    90    1
    59    13    12    1
    60    13    14    1
    61    86    85    1
    62    86    87    2
    63    28    26   ar
    64    82    83    2
    65    73    71   am
    66    15    14    2
    67    27    26   ar
    68    70    71    1
    69    70    69    1
    70    26    25    1
    71    14    17   am
    72    71    72    2
    73    66    65    1
    74    66    69    1
    75    66    67    1
    76    68    67    2
    77    25    22    1
    78    17    18    1
    79    64    63    1
    80     9     7   ar
    81     9    11   ar
    82     7     6   ar
    83    11    10   ar
    84    21    22    1
    85    21    19   am
    86    18    19    1
    87    22    23    1
    88    63    60    1
    89    19    20    2
    90     6     5    1
    91     6     8   ar
    92    10     8   ar
    93    62    61    2
    94     5     2    1
    95    24    23    2
    96    59    60    1
    97    59    54   am
    98    23    32   am
    99     4     3    2
   100    60    61    1
   101    56    53    1
   102    56    57    1
   103    53    54    1
   104    53    52    1
   105     2     3    1
   106     2     1    1
   107    54    55    2
   108    32    33    1
   109    44    43    2
   110    57    58    1
   111    52    43   am
   112    52    58    1
   113    43    42    1
   114    33    34    1
   115    33    36    1
   116    41    34   am
   117    41    42    1
   118    34    35    2
   119    42    45    1
   120    36    37    1
   121    40    38   ar
   122    39    38   ar
   123    38    37    1
   124    45    46    1
   125    46    47    1
   126    50    49    1
   127    47    48    1
   128    49    48    2
   129    49    51    1
