@<TRIPOS>MOLECULE
tmp/3b7jC01.pdb
 124 121 0 0 0
SMALL
GASTEIGER

@<TRIPOS>ATOM
      1  N         -7.4700  -19.2300  -31.0220 N.3    12  ILE12      -0.1231
      2  CA        -6.9010  -19.2890  -32.3600 C.3    12  ILE12       0.1692
      3  C         -5.8300  -18.2270  -32.6170 C.2    12  ILE12       0.2592
      4  O         -4.7990  -18.5180  -33.2230 O.2    12  ILE12      -0.2718
      5  CB        -8.0040  -19.1930  -33.4480 C.3    12  ILE12       0.0266
      6  CG1       -9.0220  -20.3230  -33.2590 C.3    12  ILE12       0.0019
      7  CG2       -7.3820  -19.2740  -34.8310 C.3    12  ILE12       0.0020
      8  CD1       -8.4170  -21.7090  -33.2620 C.3    12  ILE12       0.0001
      9  N         -6.0740  -17.0030  -32.1660 N.am   13  LEU13      -0.1966
     10  CA        -5.1040  -15.9250  -32.3450 C.3    13  LEU13       0.1713
     11  C         -4.1790  -15.8560  -31.1320 C.2    13  LEU13       0.2458
     12  O         -4.6090  -16.0760  -30.0080 O.2    13  LEU13      -0.2730
     13  CB        -5.8030  -14.5650  -32.4970 C.3    13  LEU13       0.0310
     14  CG        -6.7530  -14.2970  -33.6600 C.3    13  LEU13       0.0022
     15  CD1       -7.2530  -12.8610  -33.5810 C.3    13  LEU13       0.0001
     16  CD2       -6.0370  -14.5320  -34.9690 C.3    13  LEU13       0.0001
     17  N         -2.8920  -15.5570  -31.3510 N.am   14  PRO14      -0.2716
     18  CA        -1.9220  -15.4560  -30.2550 C.3    14  PRO14       0.1536
     19  C         -2.0270  -14.0920  -29.5710 C.2    14  PRO14       0.2598
     20  O         -1.5460  -13.9090  -28.4580 O.2    14  PRO14      -0.2715
     21  CB        -0.5890  -15.6190  -30.9700 C.3    14  PRO14       0.0310
     22  CG        -0.8490  -14.8960  -32.2500 C.3    14  PRO14       0.0237
     23  CD        -2.2180  -15.4200  -32.6520 C.3    14  PRO14       0.0939
     24  N         -2.6510  -13.1400  -30.2580 N.am   15  HIS15      -0.1974
     25  CA        -2.8280  -11.7860  -29.7420 C.3    15  HIS15       0.1656
     26  C         -3.5090  -11.7450  -28.3800 C.2    15  HIS15       0.2291
     27  O         -4.4600  -12.4780  -28.1260 O.2    15  HIS15      -0.2864
     28  CB        -3.6670  -10.9430  -30.7090 C.3    15  HIS15       0.0771
     29  CG        -3.0730  -10.8080  -32.0730 C.ar   15  HIS15       0.0820
     30  ND1       -2.9520  -11.8710  -32.9380 N.ar   15  HIS15      -0.2267
     31  CD2       -2.5690   -9.7320  -32.7240 C.ar   15  HIS15       0.1154
     32  CE1       -2.3970  -11.4560  -34.0630 C.ar   15  HIS15       0.1986
     33  NE2       -2.1550  -10.1620  -33.9590 N.ar   15  HIS15      -0.2212
     34  N         -6.7280   -6.9250  -40.1240 N.3    67  ALA67      -0.1231
     35  CA        -5.6640   -7.8930  -40.3690 C.3    67  ALA67       0.1694
     36  C         -5.8860   -9.1250  -39.5000 C.2    67  ALA67       0.2591
     37  O         -5.7030  -10.2640  -39.9430 O.2    67  ALA67      -0.2718
     38  CB        -4.3110   -7.2790  -40.0680 C.3    67  ALA67       0.0304
     39  N         -6.2910   -8.8960  -38.2570 N.am   68  GLN68      -0.1979
     40  CA        -6.5340  -10.0040  -37.3570 C.3    68  GLN68       0.1601
     41  C         -7.6940  -10.8440  -37.8850 C.2    68  GLN68       0.2287
     42  O         -7.6370  -12.0760  -37.8680 O.2    68  GLN68      -0.2864
     43  CB        -6.8130   -9.4830  -35.9460 C.3    68  GLN68       0.0394
     44  CG        -5.5440   -9.2270  -35.1400 C.3    68  GLN68       0.0908
     45  CD        -5.7830   -8.4290  -33.8570 C.2    68  GLN68       0.2608
     46  OE1       -6.7640   -8.6460  -33.1420 O.2    68  GLN68      -0.2717
     47  NE2       -4.8720   -7.5100  -33.5570 N.am   68  GLN68      -0.0878
     48  N         -6.5740  -12.9840  -40.6840 N.3    71  GLY71      -0.1210
     49  CA        -5.8010  -14.1100  -40.1910 C.3    71  GLY71       0.1956
     50  C         -6.6730  -15.2360  -39.6580 C.2    71  GLY71       0.2611
     51  O         -6.4000  -16.4080  -39.9000 O.2    71  GLY71      -0.2717
     52  N         -7.7200  -14.8890  -38.9210 N.am   72  PHE72      -0.1976
     53  CA        -8.6300  -15.8920  -38.3820 C.3    72  PHE72       0.1639
     54  C         -9.2940  -16.6200  -39.5510 C.2    72  PHE72       0.2290
     55  O         -9.5110  -17.8280  -39.5050 O.2    72  PHE72      -0.2864
     56  CB        -9.7120  -15.2280  -37.5300 C.3    72  PHE72       0.0560
     57  CG       -10.5860  -16.2020  -36.7890 C.ar   72  PHE72      -0.0200
     58  CD1      -10.2410  -16.6310  -35.5080 C.ar   72  PHE72      -0.0042
     59  CD2      -11.7610  -16.6810  -37.3650 C.ar   72  PHE72      -0.0042
     60  CE1      -11.0500  -17.5180  -34.8040 C.ar   72  PHE72      -0.0003
     61  CE2      -12.5820  -17.5720  -36.6740 C.ar   72  PHE72      -0.0003
     62  CZ       -12.2210  -17.9900  -35.3830 C.ar   72  PHE72      -0.0000
     63  N         -6.5240  -18.8400  -41.2700 N.3    75  PHE75      -0.1241
     64  CA        -6.2760  -19.9940  -40.4210 C.3    75  PHE75       0.1605
     65  C         -7.4250  -20.9930  -40.3670 C.2    75  PHE75       0.2264
     66  O         -7.2110  -22.1920  -40.5640 O.2    75  PHE75      -0.2867
     67  CB        -5.9420  -19.5870  -38.9900 C.3    75  PHE75       0.0534
     68  CG        -5.6350  -20.7590  -38.1120 C.ar   75  PHE75      -0.0203
     69  CD1       -4.3480  -21.2890  -38.0610 C.ar   75  PHE75      -0.0042
     70  CD2       -6.6460  -21.3960  -37.4090 C.ar   75  PHE75      -0.0042
     71  CE1       -4.0780  -22.4360  -37.3260 C.ar   75  PHE75      -0.0003
     72  CE2       -6.3850  -22.5510  -36.6700 C.ar   75  PHE75      -0.0003
     73  CZ        -5.0950  -23.0700  -36.6310 C.ar   75  PHE75      -0.0000
     74  N         -3.2590  -24.1630  -33.9100 N.3    86  ALA86      -0.1245
     75  CA        -3.1140  -22.7110  -33.8840 C.3    86  ALA86       0.1562
     76  C         -1.8360  -22.2990  -33.1710 C.2    86  ALA86       0.2260
     77  O         -1.1490  -21.3770  -33.6070 O.2    86  ALA86      -0.2867
     78  CB        -4.3210  -22.0740  -33.2070 C.3    86  ALA86       0.0290
     79  N          1.2950  -22.1280  -35.4830 N.3    89  LYS89      -0.1231
     80  CA         1.3130  -21.2870  -36.6810 C.3    89  LYS89       0.1693
     81  C          1.4500  -19.8030  -36.3640 C.2    89  LYS89       0.2592
     82  O          1.2240  -19.3660  -35.2350 O.2    89  LYS89      -0.2718
     83  CB         0.0140  -21.4740  -37.4780 C.3    89  LYS89       0.0285
     84  CG        -0.3210  -22.9070  -37.8350 C.3    89  LYS89       0.0035
     85  CD         0.7570  -23.5150  -38.7240 C.3    89  LYS89       0.0206
     86  CE         0.4740  -24.9900  -38.9950 C.3    89  LYS89       0.1093
     87  NZ         1.5880  -25.6490  -39.7350 N.3    89  LYS89      -0.1314
     88  N          1.8420  -19.0350  -37.3740 N.am   90  ILE90      -0.1966
     89  CA         1.9310  -17.5870  -37.2490 C.3    90  ILE90       0.1727
     90  C          1.5420  -17.0120  -38.6020 C.2    90  ILE90       0.2616
     91  O          1.8210  -17.6050  -39.6400 O.2    90  ILE90      -0.2715
     92  CB         3.3530  -17.0690  -36.8830 C.3    90  ILE90       0.0290
     93  CG1        4.3270  -17.2820  -38.0330 C.3    90  ILE90       0.0022
     94  CG2        3.8810  -17.7860  -35.6680 C.3    90  ILE90       0.0023
     95  CD1        5.7170  -16.7980  -37.6930 C.3    90  ILE90       0.0001
     96  N          0.8750  -15.8680  -38.5800 N.am   91  VAL91      -0.1977
     97  CA         0.4660  -15.1990  -39.8040 C.3    91  VAL91       0.1596
     98  C          1.2440  -13.8860  -39.8910 C.2    91  VAL91       0.2287
     99  O          0.8800  -12.9180  -39.2280 O.2    91  VAL91      -0.2864
    100  CB        -1.0580  -14.8740  -39.7860 C.3    91  VAL91       0.0276
    101  CG1       -1.4500  -14.1500  -41.0670 C.3    91  VAL91       0.0022
    102  CG2       -1.8700  -16.1490  -39.6270 C.3    91  VAL91       0.0022
    103  N          2.1890  -10.4570  -41.4920 N.3    93  PHE93      -0.1241
    104  CA         1.5510   -9.5880  -42.4640 C.3    93  PHE93       0.1605
    105  C          2.6660   -8.8750  -43.1970 C.2    93  PHE93       0.2264
    106  O          3.4570   -8.1500  -42.6040 O.2    93  PHE93      -0.2867
    107  CB         0.5670   -8.6290  -41.8030 C.3    93  PHE93       0.0534
    108  CG        -0.8430   -9.1740  -41.7740 C.ar   93  PHE93      -0.0203
    109  CD1       -1.2790   -9.9760  -40.7190 C.ar   93  PHE93      -0.0042
    110  CD2       -1.7060   -8.9580  -42.8550 C.ar   93  PHE93      -0.0042
    111  CE1       -2.5500  -10.5580  -40.7400 C.ar   93  PHE93      -0.0003
    112  CE2       -2.9750   -9.5350  -42.8900 C.ar   93  PHE93      -0.0003
    113  CZ        -3.3980  -10.3380  -41.8300 C.ar   93  PHE93      -0.0000
    114  N          5.4250  -21.4090  -36.2140 N.3   150  ARG150     -0.1245
    115  CA         5.8540  -20.6220  -35.0550 C.3   150  ARG150      0.1563
    116  C          6.9870  -21.3080  -34.2960 C.2   150  ARG150      0.2260
    117  O          7.7790  -22.0080  -34.9690 O.2   150  ARG150     -0.2867
    118  CB         4.6620  -20.3850  -34.1130 C.3   150  ARG150      0.0307
    119  CG         5.0410  -20.0960  -32.6650 C.3   150  ARG150      0.0489
    120  CD         4.1130  -19.0630  -32.0060 C.3   150  ARG150      0.2205
    121  NE         2.7150  -19.1930  -32.4260 N.pl3 150  ARG150     -0.0865
    122  CZ         1.6630  -18.9200  -31.6540 C.cat 150  ARG150      0.5346
    123  NH1        1.8390  -18.5050  -30.4010 N.pl3 150  ARG150      0.1354
    124  NH2        0.4310  -19.0450  -32.1420 N.pl3 150  ARG150      0.1354
@<TRIPOS>BOND
     1   105   106    2
     2   105   104    1
     3   112   110   ar
     4   112   113   ar
     5   110   108   ar
     6   104   107    1
     7   104   103    1
     8   113   111   ar
     9   107   108    1
    10   108   109   ar
    11    63    64    1
    12   101   100    1
    13   111   109   ar
    14    48    49    1
    15    66    65    2
    16    64    65    1
    17    64    67    1
    18    35    34    1
    19    35    38    1
    20    35    36    1
    21    49    50    1
    22    37    36    2
    23    51    50    2
    24    98    97    1
    25    98    99    2
    26    97   100    1
    27    97    96    1
    28   100   102    1
    29    87    86    1
    30    50    52   am
    31    91    90    2
    32    54    55    2
    33    54    53    1
    34    36    39   am
    35    86    85    1
    36    67    68    1
    37    52    53    1
    38    85    84    1
    39    90    96   am
    40    90    89    1
    41    53    56    1
    42    39    40    1
    43    68    69   ar
    44    68    70   ar
    45    69    71   ar
    46    93    95    1
    47    93    92    1
    48    41    42    2
    49    41    40    1
    50    84    83    1
    51    56    57    1
    52    83    80    1
    53    70    72   ar
    54    88    89    1
    55    88    81   am
    56    59    57   ar
    57    59    61   ar
    58    40    43    1
    59    71    73   ar
    60    89    92    1
    61    92    94    1
    62    57    58   ar
    63    80    81    1
    64    80    79    1
    65    61    62   ar
    66    72    73   ar
    67    81    82    2
    68   114   115    1
    69    43    44    1
    70    58    60   ar
    71    62    60   ar
    72    44    45    1
    73   115   116    1
    74   115   118    1
    75    16    14    1
    76   117   116    2
    77     7     5    1
    78   118   119    1
    79    32    33   ar
    80    32    30   ar
    81    33    31   ar
    82    74    75    1
    83    75    78    1
    84    75    76    1
    85    45    47   am
    86    45    46    2
    87    14    15    1
    88    14    13    1
    89    77    76    2
    90     5     6    1
    91     5     2    1
    92     8     6    1
    93     4     3    2
    94    30    29   ar
    95    31    29   ar
    96   119   120    1
    97    23    22    1
    98    23    17    1
    99     3     2    1
   100     3     9   am
   101    13    10    1
   102   121   120    1
   103   121   122    2
   104     2     1    1
   105    10     9    1
   106    10    11    1
   107    22    21    1
   108   124   122    1
   109    29    28    1
   110   122   123    1
   111    17    11   am
   112    17    18    1
   113    11    12    2
   114    21    18    1
   115    28    25    1
   116    24    25    1
   117    24    19   am
   118    18    19    1
   119    25    26    1
   120    19    20    2
   121    26    27    2
