@<TRIPOS>MOLECULE
tmp/3b7jA01.pdb
 103 102 0 0 0
SMALL
GASTEIGER

@<TRIPOS>ATOM
      1  N          6.2700   10.5160  -13.5140 N.3    51  HIS51      -0.1226
      2  CA         7.6120   10.9450  -13.1520 C.3    51  HIS51       0.1752
      3  C          8.3600   11.6110  -14.3140 C.2    51  HIS51       0.2596
      4  O          9.2510   11.0030  -14.9030 O.2    51  HIS51      -0.2718
      5  CB         8.3890    9.7210  -12.6440 C.3    51  HIS51       0.0759
      6  CG         9.6660   10.0540  -11.9300 C.ar   51  HIS51       0.0818
      7  ND1       10.8060   10.4660  -12.5880 N.ar   51  HIS51      -0.2268
      8  CD2        9.9790   10.0340  -10.6120 C.ar   51  HIS51       0.1154
      9  CE1       11.7650   10.6860  -11.7050 C.ar   51  HIS51       0.1986
     10  NE2       11.2890   10.4330  -10.4990 N.ar   51  HIS51      -0.2212
     11  N          8.0080   12.8500  -14.6590 N.am   52  PHE52      -0.1976
     12  CA         6.9510   13.6320  -14.0150 C.3    52  PHE52       0.1639
     13  C          6.0350   14.1690  -15.1180 C.2    52  PHE52       0.2290
     14  O          6.4090   14.1860  -16.2950 O.2    52  PHE52      -0.2864
     15  CB         7.5560   14.8270  -13.2620 C.3    52  PHE52       0.0560
     16  CG         8.4400   14.4420  -12.1130 C.ar   52  PHE52      -0.0200
     17  CD1        7.8920   14.0760  -10.8910 C.ar   52  PHE52      -0.0042
     18  CD2        9.8180   14.4190  -12.2620 C.ar   52  PHE52      -0.0042
     19  CE1        8.7070   13.6890   -9.8290 C.ar   52  PHE52      -0.0003
     20  CE2       10.6420   14.0330  -11.2080 C.ar   52  PHE52      -0.0003
     21  CZ        10.0840   13.6670   -9.9890 C.ar   52  PHE52      -0.0000
     22  N         11.3370   12.0290  -16.6520 N.3    57  ILE57      -0.1231
     23  CA        12.6640   11.7240  -16.1100 C.3    57  ILE57       0.1692
     24  C         12.6490   10.2630  -15.6670 C.2    57  ILE57       0.2592
     25  O         11.8170    9.8750  -14.8520 O.2    57  ILE57      -0.2718
     26  CB        13.0100   12.5790  -14.8540 C.3    57  ILE57       0.0266
     27  CG1       12.8290   14.0760  -15.1300 C.3    57  ILE57       0.0019
     28  CG2       14.4390   12.2810  -14.4150 C.3    57  ILE57       0.0020
     29  CD1       13.7720   14.6410  -16.1520 C.3    57  ILE57       0.0001
     30  N         13.5520    9.4490  -16.2000 N.am   58  PHE58      -0.1976
     31  CA        13.5890    8.0480  -15.8010 C.3    58  PHE58       0.1639
     32  C         14.0960    8.0100  -14.3590 C.2    58  PHE58       0.2290
     33  O         15.1790    8.5080  -14.0620 O.2    58  PHE58      -0.2864
     34  CB        14.5190    7.2460  -16.7180 C.3    58  PHE58       0.0560
     35  CG        14.3230    5.7600  -16.6250 C.ar   58  PHE58      -0.0200
     36  CD1       13.1330    5.1760  -17.0470 C.ar   58  PHE58      -0.0042
     37  CD2       15.3210    4.9410  -16.1080 C.ar   58  PHE58      -0.0042
     38  CE1       12.9370    3.8050  -16.9590 C.ar   58  PHE58      -0.0003
     39  CE2       15.1320    3.5620  -16.0150 C.ar   58  PHE58      -0.0003
     40  CZ        13.9360    2.9960  -16.4420 C.ar   58  PHE58      -0.0000
     41  N         15.8750    7.5270  -10.9930 N.3    60  GLY60      -0.1225
     42  CA        17.2120    7.0930  -10.6270 C.3    60  GLY60       0.1811
     43  C         17.2330    5.7150   -9.9770 C.2    60  GLY60       0.2280
     44  O         18.1540    4.9290  -10.2040 O.2    60  GLY60      -0.2866
     45  N         17.2130    3.0670  -12.4940 N.3    63  ILE63      -0.1245
     46  CA        18.4870    2.9460  -13.1960 C.3    63  ILE63       0.1561
     47  C         19.2970    1.9160  -12.4110 C.2    63  ILE63       0.2260
     48  O         19.9270    1.0220  -12.9840 O.2    63  ILE63      -0.2867
     49  CB        19.2830    4.2620  -13.1960 C.3    63  ILE63       0.0252
     50  CG1       18.5300    5.3360  -13.9750 C.3    63  ILE63       0.0019
     51  CG2       20.6670    4.0330  -13.8100 C.3    63  ILE63       0.0019
     52  CD1       19.2060    6.6790  -13.9470 C.3    63  ILE63       0.0001
     53  N         23.9200   10.0930   -8.8110 N.3   102  PHE102     -0.1227
     54  CA        23.2200   10.4250  -10.0430 C.3   102  PHE102      0.1736
     55  C         23.8560   11.6930  -10.5950 C.2   102  PHE102      0.2595
     56  O         23.8150   12.7380   -9.9580 O.2   102  PHE102     -0.2718
     57  CB        21.7340   10.6490   -9.7740 C.3   102  PHE102      0.0547
     58  CG        21.0370    9.4480   -9.2170 C.ar  102  PHE102     -0.0202
     59  CD1       20.4960    9.4720   -7.9310 C.ar  102  PHE102     -0.0042
     60  CD2       20.9160    8.2880   -9.9730 C.ar  102  PHE102     -0.0042
     61  CE1       19.8440    8.3540   -7.4100 C.ar  102  PHE102     -0.0003
     62  CE2       20.2660    7.1670   -9.4570 C.ar  102  PHE102     -0.0003
     63  CZ        19.7290    7.2000   -8.1780 C.ar  102  PHE102     -0.0000
     64  N         24.4480   11.5970  -11.7780 N.am  103  ARG103     -0.1966
     65  CA        25.1190   12.7400  -12.3820 C.3   103  ARG103      0.1729
     66  C         24.3230   13.4440  -13.4620 C.2   103  ARG103      0.2616
     67  O         24.3420   14.6700  -13.5390 O.2   103  ARG103     -0.2715
     68  CB        26.4540   12.3050  -12.9770 C.3   103  ARG103      0.0348
     69  CG        27.4550   11.8080  -11.9720 C.3   103  ARG103      0.0492
     70  CD        28.7640   11.4900  -12.6670 C.3   103  ARG103      0.2205
     71  NE        29.8030   11.0430  -11.7410 N.pl3 103  ARG103     -0.0865
     72  CZ        30.2570   11.7580  -10.7140 C.cat 103  ARG103      0.5346
     73  NH1       29.7580   12.9650  -10.4730 N.pl3 103  ARG103      0.1354
     74  NH2       31.2250   11.2690   -9.9340 N.pl3 103  ARG103      0.1354
     75  N         23.6390   12.6690  -14.3030 N.am  104  ILE104     -0.1964
     76  CA        22.8630   13.2330  -15.4010 C.3   104  ILE104      0.1712
     77  C         21.4840   12.5870  -15.5290 C.2   104  ILE104      0.2458
     78  O         21.3550   11.3660  -15.4820 O.2   104  ILE104     -0.2730
     79  CB        23.6120   13.0580  -16.7510 C.3   104  ILE104      0.0289
     80  CG1       24.9960   13.7070  -16.6730 C.3   104  ILE104      0.0022
     81  CG2       22.7950   13.6710  -17.8950 C.3   104  ILE104      0.0023
     82  CD1       25.8150   13.5790  -17.9560 C.3   104  ILE104      0.0001
     83  N         20.4310   13.4030  -15.7010 N.am  105  PRO105     -0.2716
     84  CA        19.0940   12.8260  -15.8310 C.3   105  PRO105      0.1536
     85  C         18.9340   12.0370  -17.1240 C.2   105  PRO105      0.2598
     86  O         19.4750   12.3990  -18.1600 O.2   105  PRO105     -0.2715
     87  CB        18.1820   14.0470  -15.7710 C.3   105  PRO105      0.0310
     88  CG        19.0170   15.1160  -16.3930 C.3   105  PRO105      0.0237
     89  CD        20.3790   14.8730  -15.7740 C.3   105  PRO105      0.0939
     90  N         18.1860   10.9480  -17.0370 N.am  106  VAL106     -0.1978
     91  CA        17.9170   10.0720  -18.1660 C.3   106  VAL106      0.1596
     92  C         16.5200   10.3920  -18.7040 C.2   106  VAL106      0.2287
     93  O         15.5540   10.4720  -17.9420 O.2   106  VAL106     -0.2864
     94  CB        17.9900    8.6010  -17.7100 C.3   106  VAL106      0.0276
     95  CG1       17.5300    7.6880  -18.8120 C.3   106  VAL106      0.0022
     96  CG2       19.4160    8.2700  -17.2910 C.3   106  VAL106      0.0022
     97  N         25.9030    8.6600  -16.3730 N.3   139  VAL139     -0.1245
     98  CA        24.7050    9.3040  -15.8480 C.3   139  VAL139      0.1561
     99  C         24.4720    8.8610  -14.4100 C.2   139  VAL139      0.2260
    100  O         23.7570    9.5200  -13.6520 O.2   139  VAL139     -0.2867
    101  CB        23.4610    8.9740  -16.7100 C.3   139  VAL139      0.0252
    102  CG1       23.6970    9.4230  -18.1270 C.3   139  VAL139      0.0019
    103  CG2       23.1610    7.4870  -16.6770 C.3   139  VAL139      0.0019
@<TRIPOS>BOND
     1    95    94    1
     2    92    91    1
     3    92    93    2
     4    91    94    1
     5    91    90    1
     6    86    85    2
     7   102   101    1
     8    82    80    1
     9    81    79    1
    10    94    96    1
    11    85    90   am
    12    85    84    1
    13    36    38   ar
    14    36    35   ar
    15    38    40   ar
    16    79    80    1
    17    79    76    1
    18    34    35    1
    19    34    31    1
    20   101   103    1
    21   101    98    1
    22    22    23    1
    23    35    37   ar
    24    40    39   ar
    25    88    89    1
    26    88    87    1
    27    97    98    1
    28    14    13    2
    29    30    31    1
    30    30    24   am
    31    29    27    1
    32    23    24    1
    33    23    26    1
    34    37    39   ar
    35    98    99    1
    36    84    87    1
    37    84    83    1
    38    31    32    1
    39    89    83    1
    40    83    77   am
    41    24    25    2
    42    77    78    2
    43    77    76    1
    44    76    75    1
    45    27    26    1
    46    13    12    1
    47     4     3    2
    48    26    28    1
    49    11     3   am
    50    11    12    1
    51    99   100    2
    52    32    33    2
    53     3     2    1
    54    75    66   am
    55    12    15    1
    56    50    52    1
    57    50    49    1
    58    51    49    1
    59    67    66    2
    60     1     2    1
    61    66    65    1
    62    15    16    1
    63    46    49    1
    64    46    45    1
    65    46    47    1
    66     2     5    1
    67    48    47    2
    68    68    65    1
    69    68    69    1
    70    70    69    1
    71    70    71    1
    72     5     6    1
    73     7     6   ar
    74     7     9   ar
    75    65    64    1
    76    18    16   ar
    77    18    20   ar
    78    16    17   ar
    79     6     8   ar
    80    64    55   am
    81    71    72    2
    82     9    10   ar
    83    20    21   ar
    84    41    42    1
    85    17    19   ar
    86    72    73    1
    87    72    74    1
    88    42    43    1
    89     8    10   ar
    90    55    54    1
    91    55    56    2
    92    44    43    2
    93    54    57    1
    94    54    53    1
    95    21    19   ar
    96    60    62   ar
    97    60    58   ar
    98    57    58    1
    99    62    63   ar
   100    58    59   ar
   101    63    61   ar
   102    59    61   ar
