@<TRIPOS>MOLECULE
tmp/3b7oA00.pdb
 91 85 0 0 0
SMALL
GASTEIGER

@<TRIPOS>ATOM
      1  N         24.9510    9.2820   70.1170 N.3   101  THR101     -0.1218
      2  CA        26.3130    9.7360   70.4250 C.3   101  THR101      0.1862
      3  C         26.4060   10.3020   71.8380 C.2   101  THR101      0.2287
      4  O         25.4170   10.6410   72.4260 O.2   101  THR101     -0.2866
      5  CB        26.7790   10.8750   69.4870 C.3   101  THR101      0.1770
      6  OG1       25.9530   12.0400   69.6920 O.3   101  THR101     -0.2211
      7  CG2       26.7150   10.4230   68.0200 C.3   101  THR101      0.0375
      8  N         29.7880   16.4460   68.9850 N.3   110  LYS110     -0.1245
      9  CA        28.8010   15.6980   68.1980 C.3   110  LYS110      0.1561
     10  C         27.3770   16.2140   68.4040 C.2   110  LYS110      0.2260
     11  O         26.4990   16.0030   67.5630 O.2   110  LYS110     -0.2867
     12  CB        28.8770   14.1890   68.5470 C.3   110  LYS110      0.0271
     13  CG        30.2930   13.6080   68.4370 C.3   110  LYS110      0.0035
     14  CD        30.8800   13.9680   67.1180 C.3   110  LYS110      0.0206
     15  CE        32.3090   13.4460   66.8930 C.3   110  LYS110      0.1093
     16  NZ        32.8550   13.9820   65.5680 N.3   110  LYS110     -0.1314
     17  N         28.0660    3.2450   72.5000 N.3   167  TRP167     -0.1241
     18  CA        28.6500    3.0070   71.1630 C.3   167  TRP167      0.1605
     19  C         30.1390    3.4110   71.2110 C.2   167  TRP167      0.2264
     20  O         30.5080    4.4390   71.8170 O.2   167  TRP167     -0.2867
     21  CB        27.9220    3.8360   70.1020 C.3   167  TRP167      0.0550
     22  CG        28.1900    3.4900   68.7290 C.ar  167  TRP167      0.0003
     23  CD1       29.2100    3.9300   67.9910 C.ar  167  TRP167      0.0946
     24  CD2       27.3770    2.6910   67.8730 C.ar  167  TRP167      0.0152
     25  NE1       29.1160    3.4270   66.7010 N.ar  167  TRP167     -0.2442
     26  CE2       27.9950    2.6670   66.6010 C.ar  167  TRP167      0.0810
     27  CE3       26.1940    1.9800   68.0590 C.ar  167  TRP167      0.0012
     28  CZ2       27.4780    1.9520   65.5280 C.ar  167  TRP167      0.0191
     29  CZ3       25.6740    1.2700   66.9840 C.ar  167  TRP167      0.0001
     30  CH2       26.3230    1.2490   65.7330 C.ar  167  TRP167      0.0015
     31  N         34.7960    2.6530   65.1700 N.3   171  GLY171     -0.1225
     32  CA        34.0620    1.4780   64.6660 C.3   171  GLY171      0.1811
     33  C         32.6170    1.3080   65.2130 C.2   171  GLY171      0.2280
     34  O         31.9540    2.2950   65.5220 O.2   171  GLY171     -0.2866
     35  N         22.8120   11.6650   65.1590 N.3   203  CYS203     -0.1221
     36  CA        24.2440   11.5690   65.4320 C.3   203  CYS203      0.1808
     37  C         24.9040   12.8420   64.8900 C.2   203  CYS203      0.2602
     38  O         24.2230   13.7800   64.4890 O.2   203  CYS203     -0.2717
     39  CB        24.8140   10.3210   64.8140 C.3   203  CYS203      0.0970
     40  SG        24.6750   10.2860   63.0110 S.3   203  CYS203     -0.0800
     41  N         26.2090   12.9410   64.8810 N.am  204  SER204     -0.1938
     42  CA        26.7620   14.2550   64.5740 C.3   204  SER204      0.2055
     43  C         26.3620   14.7560   63.2080 C.2   204  SER204      0.2642
     44  O         26.1740   15.9440   63.0450 O.2   204  SER204     -0.2714
     45  CB        28.2870   14.3260   64.6950 C.3   204  SER204      0.2130
     46  OG        28.8910   13.5940   63.6560 O.3   204  SER204     -0.2179
     47  N         26.3270   13.9070   62.2060 N.am  205  ALA205     -0.1977
     48  CA        25.9110   14.3210   60.8450 C.3   205  ALA205      0.1597
     49  C         24.5110   13.8720   60.4710 C.2   205  ALA205      0.2287
     50  O         23.9800   14.3400   59.4840 O.2   205  ALA205     -0.2864
     51  CB        26.8960   13.8220   59.8130 C.3   205  ALA205      0.0319
     52  N         25.4710    8.3740   59.4490 N.3   208  GLY208     -0.1210
     53  CA        26.2240    7.1200   59.7180 C.3   208  GLY208      0.1956
     54  C         25.5840    6.2130   60.7650 C.2   208  GLY208      0.2611
     55  O         24.9310    5.2070   60.4620 O.2   208  GLY208     -0.2717
     56  N         25.7950    6.5780   62.0160 N.am  209  ARG209     -0.1979
     57  CA        25.1480    5.8750   63.0990 C.3   209  ARG209      0.1597
     58  C         23.6200    5.9930   63.0140 C.2   209  ARG209      0.2287
     59  O         22.9190    5.0370   63.2630 O.2   209  ARG209     -0.2864
     60  CB        25.5300    6.4590   64.4490 C.3   209  ARG209      0.0334
     61  CG        26.3340    5.6310   65.2490 C.3   209  ARG209      0.0492
     62  CD        26.7680    6.3640   66.5310 C.3   209  ARG209      0.2205
     63  NE        28.1770    6.6850   66.4480 N.pl3 209  ARG209     -0.0865
     64  CZ        28.9010    7.1460   67.4430 C.cat 209  ARG209      0.5346
     65  NH1       28.3530    7.2900   68.6270 N.pl3 209  ARG209      0.1354
     66  NH2       30.1840    7.3920   67.2720 N.pl3 209  ARG209      0.1354
     67  N         27.3080    4.8070   56.6090 N.3   250  GLN250     -0.1231
     68  CA        28.4940    5.3610   55.9830 C.3   250  GLN250      0.1698
     69  C         29.6880    4.4390   55.8410 C.2   250  GLN250      0.2592
     70  O         30.5450    4.7020   55.0120 O.2   250  GLN250     -0.2718
     71  CB        28.9030    6.6350   56.7150 C.3   250  GLN250      0.0381
     72  CG        28.0540    7.8120   56.2680 C.3   250  GLN250      0.0905
     73  CD        28.5570    8.3760   54.9610 C.2   250  GLN250      0.2608
     74  OE1       29.6650    8.9080   54.9050 O.2   250  GLN250     -0.2717
     75  NE2       27.7730    8.2240   53.8890 N.am  250  GLN250     -0.0878
     76  N         29.7810    3.4180   56.6630 N.am  251  THR251     -0.1953
     77  CA        30.9690    2.5300   56.6180 C.3   251  THR251      0.1897
     78  C         30.5980    1.0540   56.4190 C.2   251  THR251      0.2313
     79  O         29.4820    0.5950   56.7160 O.2   251  THR251     -0.2863
     80  CB        31.7840    2.6560   57.9060 C.3   251  THR251      0.1794
     81  OG1       30.9950    2.0510   58.9500 O.3   251  THR251     -0.2208
     82  CG2       32.0880    4.1670   58.2480 C.3   251  THR251      0.0378
     83  N         29.5160   -0.5600   59.6430 N.3   254  GLN254     -0.1245
     84  CA        28.1020   -0.2990   59.8890 C.3   254  GLN254      0.1566
     85  C         27.2380   -1.2380   59.0910 C.2   254  GLN254      0.2260
     86  O         26.2380   -1.7980   59.5730 O.2   254  GLN254     -0.2867
     87  CB        27.7850    1.1730   59.5940 C.3   254  GLN254      0.0367
     88  CG        28.3090    2.0800   60.6620 C.3   254  GLN254      0.0905
     89  CD        28.2910    3.5280   60.2960 C.2   254  GLN254      0.2608
     90  OE1       27.8920    3.8980   59.1940 O.2   254  GLN254     -0.2717
     91  NE2       28.7430    4.3830   61.2320 N.am  254  GLN254     -0.0878
@<TRIPOS>BOND
     1    75    73   am
     2    74    73    2
     3    73    72    1
     4    70    69    2
     5    69    68    1
     6    69    76   am
     7    68    67    1
     8    68    71    1
     9    72    71    1
    10    78    77    1
    11    78    79    2
    12    77    76    1
    13    77    80    1
    14    80    82    1
    15    80    81    1
    16    85    86    2
    17    85    84    1
    18    90    89    2
    19    52    53    1
    20    50    49    2
    21    87    84    1
    22    87    88    1
    23    83    84    1
    24    53    54    1
    25    51    48    1
    26    89    88    1
    27    89    91   am
    28    55    54    2
    29    49    48    1
    30    54    56   am
    31    48    47    1
    32    56    57    1
    33    47    43   am
    34    40    39    1
    35    58    57    1
    36    58    59    2
    37    44    43    2
    38    57    60    1
    39    43    42    1
    40    46    45    1
    41    60    61    1
    42    38    37    2
    43    42    45    1
    44    42    41    1
    45    32    31    1
    46    32    33    1
    47    39    36    1
    48    41    37   am
    49    37    36    1
    50    35    36    1
    51    33    34    2
    52    61    62    1
    53    28    30   ar
    54    28    26   ar
    55    16    15    1
    56    30    29   ar
    57    63    62    1
    58    63    64    2
    59    26    25   ar
    60    26    24   ar
    61    25    23   ar
    62    15    14    1
    63    29    27   ar
    64    14    13    1
    65    66    64    1
    66    64    65    1
    67    11    10    2
    68    24    27   ar
    69    24    22   ar
    70    23    22   ar
    71     7     5    1
    72     9    10    1
    73     9    12    1
    74     9     8    1
    75    13    12    1
    76    22    21    1
    77     5     6    1
    78     5     2    1
    79    21    18    1
    80     1     2    1
    81     2     3    1
    82    18    19    1
    83    18    17    1
    84    19    20    2
    85     3     4    2
