@<TRIPOS>MOLECULE
tmp/3b7pC00.pdb
 175 171 0 0 0
SMALL
GASTEIGER

@<TRIPOS>ATOM
      1  N         19.2210  155.0160   54.1810 N.3    11  TRP11      -0.1241
      2  CA        19.8340  153.7080   53.8960 C.3    11  TRP11       0.1605
      3  C         18.7860  152.5930   53.9090 C.2    11  TRP11       0.2264
      4  O         18.7520  151.7850   54.8340 O.2    11  TRP11      -0.2867
      5  CB        21.0240  153.3950   54.8310 C.3    11  TRP11       0.0550
      6  CG        20.8340  153.8170   56.2780 C.ar   11  TRP11       0.0003
      7  CD1       20.3010  153.0740   57.2860 C.ar   11  TRP11       0.0946
      8  CD2       21.1980  155.0800   56.8590 C.ar   11  TRP11       0.0152
      9  NE1       20.3040  153.7950   58.4720 N.ar   11  TRP11      -0.2442
     10  CE2       20.8500  155.0300   58.2320 C.ar   11  TRP11       0.0810
     11  CE3       21.8080  156.2400   56.3560 C.ar   11  TRP11       0.0012
     12  CZ2       21.0800  156.0940   59.0990 C.ar   11  TRP11       0.0191
     13  CZ3       22.0160  157.3120   57.2140 C.ar   11  TRP11       0.0001
     14  CH2       21.6500  157.2290   58.5790 C.ar   11  TRP11       0.0015
     15  N         19.1650  158.5970   64.3490 N.3    51  VAL51      -0.1231
     16  CA        20.4500  158.3020   63.6880 C.3    51  VAL51       0.1692
     17  C         21.5770  158.3710   64.6890 C.2    51  VAL51       0.2592
     18  O         21.6940  159.3520   65.4220 O.2    51  VAL51      -0.2718
     19  CB        20.7400  159.2990   62.5390 C.3    51  VAL51       0.0266
     20  CG1       22.0990  158.9820   61.8730 C.3    51  VAL51       0.0020
     21  CG2       19.6170  159.2890   61.5480 C.3    51  VAL51       0.0020
     22  N         22.4110  157.3370   64.7060 N.am   52  ILE52      -0.1966
     23  CA        23.5930  157.3020   65.5580 C.3    52  ILE52       0.1727
     24  C         24.5910  158.3910   65.2000 C.2    52  ILE52       0.2616
     25  O         25.0940  158.4640   64.0610 O.2    52  ILE52      -0.2715
     26  CB        24.2720  155.9040   65.5690 C.3    52  ILE52       0.0290
     27  CG1       23.2810  154.8100   66.0130 C.3    52  ILE52       0.0022
     28  CG2       25.5410  155.9140   66.4500 C.3    52  ILE52       0.0023
     29  CD1       23.7530  153.3580   65.7620 C.3    52  ILE52       0.0001
     30  N         24.8940  159.2240   66.1920 N.am   53  GLN53      -0.1963
     31  CA        25.8690  160.2870   66.0400 C.3    53  GLN53       0.1733
     32  C         27.2500  159.7990   66.4480 C.2    53  GLN53       0.2616
     33  O         28.2530  160.1030   65.7780 O.2    53  GLN53      -0.2715
     34  CB        25.4690  161.5280   66.8410 C.3    53  GLN53       0.0408
     35  CG        24.1750  162.1840   66.3550 C.3    53  GLN53       0.0908
     36  CD        24.2150  162.5110   64.8630 C.2    53  GLN53       0.2608
     37  OE1       24.8670  163.4520   64.4590 O.2    53  GLN53      -0.2717
     38  NE2       23.5040  161.7360   64.0510 N.am   53  GLN53      -0.0878
     39  N         27.3040  159.0290   67.5280 N.am   54  LEU54      -0.1977
     40  CA        28.5550  158.4850   68.0380 C.3    54  LEU54       0.1596
     41  C         28.3120  157.4480   69.1160 C.2    54  LEU54       0.2287
     42  O         27.2180  157.3740   69.6930 O.2    54  LEU54      -0.2864
     43  CB        29.4760  159.5950   68.5720 C.3    54  LEU54       0.0297
     44  CG        28.9210  160.4410   69.7350 C.3    54  LEU54       0.0022
     45  CD1       29.1290  159.7450   71.0730 C.3    54  LEU54       0.0001
     46  CD2       29.5140  161.8250   69.7630 C.3    54  LEU54       0.0001
     47  N         36.4820  158.7480   63.7600 N.3    62  TYR62      -0.1227
     48  CA        35.8990  159.8660   63.0700 C.3    62  TYR62       0.1736
     49  C         36.4450  161.2010   63.5430 C.2    62  TYR62       0.2595
     50  O         36.8320  162.0100   62.7190 O.2    62  TYR62      -0.2718
     51  CB        34.3730  159.8060   63.2540 C.3    62  TYR62       0.0548
     52  CG        33.6090  160.9880   62.6900 C.ar   62  TYR62      -0.0200
     53  CD1       33.2940  161.0600   61.3420 C.ar   62  TYR62      -0.0009
     54  CD2       33.1400  162.0040   63.5320 C.ar   62  TYR62      -0.0009
     55  CE1       32.5670  162.1130   60.8330 C.ar   62  TYR62       0.0417
     56  CE2       32.4520  163.0850   63.0160 C.ar   62  TYR62       0.0417
     57  CZ        32.1620  163.1350   61.6820 C.ar   62  TYR62       0.1957
     58  OH        31.4420  164.1930   61.1770 O.3    62  TYR62      -0.2866
     59  N         36.4680  161.4530   64.8590 N.am   63  HIS63      -0.1975
     60  CA        36.9500  162.7510   65.3280 C.3    63  HIS63       0.1656
     61  C         38.4150  163.0210   65.0010 C.2    63  HIS63       0.2291
     62  O         38.7630  164.1590   64.6630 O.2    63  HIS63      -0.2864
     63  CB        36.6350  162.9710   66.8130 C.3    63  HIS63       0.0771
     64  CG        35.1640  163.0510   67.0670 C.ar   63  HIS63       0.0820
     65  ND1       34.5210  162.2660   67.9960 N.ar   63  HIS63      -0.2267
     66  CD2       34.1970  163.7720   66.4480 C.ar   63  HIS63       0.1154
     67  CE1       33.2260  162.5430   67.9840 C.ar   63  HIS63       0.1986
     68  NE2       33.0010  163.4460   67.0450 N.ar   63  HIS63      -0.2212
     69  N         29.1080  169.6740   65.2720 N.3    85  GLY85      -0.1225
     70  CA        30.0900  169.2200   66.2500 C.3    85  GLY85       0.1811
     71  C         29.6980  169.3990   67.7150 C.2    85  GLY85       0.2280
     72  O         30.5700  169.4900   68.5740 O.2    85  GLY85      -0.2866
     73  N         28.7370  167.6560   70.1770 N.3    87  ASP87      -0.1239
     74  CA        29.3080  166.7380   71.1620 C.3    87  ASP87       0.1674
     75  C         30.7210  167.1140   71.6230 C.2    87  ASP87       0.2266
     76  O         31.1570  166.6780   72.6820 O.2    87  ASP87      -0.2867
     77  CB        29.3020  165.3180   70.5990 C.3    87  ASP87       0.1410
     78  CG        29.9210  165.2530   69.2050 C.2    87  ASP87       0.3668
     79  OD1       31.1650  165.2850   69.0870 O.co2  87  ASP87      -0.2456
     80  OD2       29.1490  165.1830   68.2400 O.co2  87  ASP87      -0.2456
     81  N         31.2880  169.1000   60.8360 N.3   156  ASP156     -0.1225
     82  CA        30.9300  167.8710   61.4840 C.3   156  ASP156      0.1805
     83  C         29.4230  167.8830   61.7150 C.2   156  ASP156      0.2598
     84  O         28.9360  168.2000   62.7940 O.2   156  ASP156     -0.2718
     85  CB        31.7090  167.7440   62.7820 C.3   156  ASP156      0.1424
     86  CG        31.2550  166.5750   63.6260 C.2   156  ASP156      0.3668
     87  OD1       30.6130  165.6380   63.0960 O.co2 156  ASP156     -0.2456
     88  OD2       31.5900  166.5890   64.8200 O.co2 156  ASP156     -0.2456
     89  N         28.6950  167.5370   60.6710 N.am  157  SER157     -0.1938
     90  CA        27.2480  167.6560   60.6800 C.3   157  SER157      0.2055
     91  C         26.5550  166.3220   60.8950 C.2   157  SER157      0.2644
     92  O         27.1320  165.2370   60.7210 O.2   157  SER157     -0.2714
     93  CB        26.7690  168.2950   59.3750 C.3   157  SER157      0.2130
     94  OG        26.9700  167.4060   58.2780 O.3   157  SER157     -0.2179
     95  N         25.2970  166.4150   61.3120 N.am  158  SER158     -0.1935
     96  CA        24.3730  165.3000   61.2140 C.3   158  SER158      0.2055
     97  C         24.0120  165.1540   59.7420 C.2   158  SER158      0.2643
     98  O         24.4530  165.9510   58.9110 O.2   158  SER158     -0.2714
     99  CB        23.1370  165.6180   62.0450 C.3   158  SER158      0.2130
    100  OG        22.7250  166.9480   61.7860 O.3   158  SER158     -0.2179
    101  N         23.1980  164.1630   59.4080 N.am  159  ASP159     -0.1971
    102  CA        22.8250  163.9110   58.0250 C.3   159  ASP159      0.1709
    103  C         21.8940  164.9720   57.4230 C.2   159  ASP159      0.2293
    104  O         21.3460  165.8100   58.1670 O.2   159  ASP159     -0.2864
    105  CB        22.2170  162.5080   57.9040 C.3   159  ASP159      0.1436
    106  CG        23.1900  161.4340   58.2860 C.2   159  ASP159      0.3671
    107  OD1       24.2550  161.3210   57.6170 O.co2 159  ASP159     -0.2456
    108  OD2       22.9070  160.7030   59.2470 O.co2 159  ASP159     -0.2456
    109  N         31.9300  166.0170   56.7170 N.3   189  GLN189     -0.1245
    110  CA        31.3060  164.7330   56.6850 C.3   189  GLN189      0.1566
    111  C         30.5630  164.5130   55.3450 C.2   189  GLN189      0.2260
    112  O         29.7310  165.3300   54.9050 O.2   189  GLN189     -0.2867
    113  CB        30.3410  164.6460   57.8810 C.3   189  GLN189      0.0367
    114  CG        29.7700  163.2740   58.0890 C.3   189  GLN189      0.0905
    115  CD        28.4280  163.1250   57.4420 C.2   189  GLN189      0.2608
    116  OE1       27.4210  163.7090   57.8750 O.2   189  GLN189     -0.2717
    117  NE2       28.3950  162.3560   56.3900 N.am  189  GLN189     -0.0878
    118  N         29.4320  161.0660   54.1270 N.3   191  GLU191     -0.1231
    119  CA        28.5940  159.8640   53.9420 C.3   191  GLU191      0.1699
    120  C         29.3400  158.5960   53.5170 C.2   191  GLU191      0.2592
    121  O         30.5780  158.5640   53.5170 O.2   191  GLU191     -0.2718
    122  CB        27.4080  160.1660   53.0110 C.3   191  GLU191      0.0402
    123  CG        26.5100  161.3150   53.4770 C.3   191  GLU191      0.1161
    124  CD        25.8210  161.0650   54.8460 C.2   191  GLU191      0.3649
    125  OE1       25.4530  162.0750   55.4780 O.co2 191  GLU191     -0.2457
    126  OE2       25.6310  159.8880   55.2550 O.co2 191  GLU191     -0.2457
    127  N         28.5900  157.5350   53.2050 N.am  192  SER192     -0.1952
    128  CA        29.2110  156.2330   52.9830 C.3   192  SER192      0.1924
    129  C         29.3900  155.9360   51.4910 C.2   192  SER192      0.2314
    130  O         28.4310  155.9860   50.7340 O.2   192  SER192     -0.2863
    131  CB        28.3850  155.1360   53.6320 C.3   192  SER192      0.2116
    132  OG        28.9980  153.8710   53.4460 O.3   192  SER192     -0.2180
    133  N         25.8950  155.8770   49.4030 N.3   196  HIS196     -0.1241
    134  CA        25.5740  157.2760   49.1490 C.3   196  HIS196      0.1621
    135  C         26.3560  157.8970   47.9930 C.2   196  HIS196      0.2264
    136  O         26.6930  159.0670   48.0640 O.2   196  HIS196     -0.2867
    137  CB        25.7970  158.1050   50.4230 C.3   196  HIS196      0.0745
    138  CG        24.9240  157.6870   51.5670 C.ar  196  HIS196      0.0817
    139  ND1       25.4060  157.4990   52.8440 N.ar  196  HIS196     -0.2268
    140  CD2       23.6020  157.4060   51.6140 C.ar  196  HIS196      0.1154
    141  CE1       24.4150  157.1200   53.6320 C.ar  196  HIS196      0.1986
    142  NE2       23.3080  157.0640   52.9120 N.ar  196  HIS196     -0.2212
    143  N         28.6800  153.7400   62.0670 N.3   224  TYR224     -0.1228
    144  CA        27.9720  154.4460   60.9910 C.3   224  TYR224      0.1721
    145  C         27.5300  153.4470   59.9270 C.2   224  TYR224      0.2437
    146  O         28.1520  152.3950   59.7780 O.2   224  TYR224     -0.2733
    147  CB        28.8110  155.5690   60.3870 C.3   224  TYR224      0.0547
    148  CG        28.9970  156.7600   61.2920 C.ar  224  TYR224     -0.0200
    149  CD1       27.9950  157.1440   62.2240 C.ar  224  TYR224     -0.0009
    150  CD2       30.1440  157.5310   61.2080 C.ar  224  TYR224     -0.0009
    151  CE1       28.1630  158.2590   63.0340 C.ar  224  TYR224      0.0417
    152  CE2       30.3200  158.6480   61.9890 C.ar  224  TYR224      0.0417
    153  CZ        29.3370  159.0010   62.9250 C.ar  224  TYR224      0.1957
    154  OH        29.5710  160.0980   63.7090 O.3   224  TYR224     -0.2866
    155  N         26.4280  153.7430   59.2220 N.am  225  PRO225     -0.2729
    156  CA        25.9150  152.7770   58.2460 C.3   225  PRO225      0.1401
    157  C         27.0030  152.3760   57.2310 C.2   225  PRO225      0.2269
    158  O         27.7480  153.2470   56.7430 O.2   225  PRO225     -0.2865
    159  CB        24.7770  153.5250   57.5630 C.3   225  PRO225      0.0296
    160  CG        24.3530  154.5540   58.5340 C.3   225  PRO225      0.0237
    161  CD        25.5770  154.9470   59.3020 C.3   225  PRO225      0.0939
    162  N         31.5380  152.7210   57.5820 N.3   228  CYS228     -0.1221
    163  CA        32.4520  153.7170   57.0510 C.3   228  CYS228      0.1808
    164  C         31.7410  155.0240   56.7490 C.2   228  CYS228      0.2601
    165  O         30.5450  155.0620   56.4780 O.2   228  CYS228     -0.2717
    166  CB        33.1890  153.2010   55.7940 C.3   228  CYS228      0.0970
    167  SG        32.2400  152.9810   54.3100 S.3   228  CYS228     -0.0800
    168  N         32.5060  156.1030   56.7830 N.am  229  ILE229     -0.1979
    169  CA        31.9900  157.3800   56.3680 C.3   229  ILE229      0.1595
    170  C         33.1180  158.1700   55.7140 C.2   229  ILE229      0.2287
    171  O         34.2710  157.9890   56.0720 O.2   229  ILE229     -0.2864
    172  CB        31.4740  158.1690   57.5400 C.3   229  ILE229      0.0276
    173  CG1       30.5130  159.2500   57.0460 C.3   229  ILE229      0.0022
    174  CG2       32.6390  158.6930   58.4110 C.3   229  ILE229      0.0022
    175  CD1       29.5570  159.6960   58.1160 C.3   229  ILE229      0.0001
@<TRIPOS>BOND
     1   135   136    2
     2   135   134    1
     3   134   133    1
     4   134   137    1
     5   137   138    1
     6   130   129    2
     7   129   128    1
     8   138   140   ar
     9   138   139   ar
    10   140   142   ar
    11   139   141   ar
    12   142   141   ar
    13   128   127    1
    14   128   131    1
    15   122   123    1
    16   122   119    1
    17   127   120   am
    18   132   131    1
    19   123   124    1
    20   121   120    2
    21   120   119    1
    22     2     3    1
    23     2     1    1
    24     2     5    1
    25     3     4    2
    26   119   118    1
    27   167   166    1
    28     5     6    1
    29   124   126   ar
    30   124   125   ar
    31   112   111    2
    32   111   110    1
    33   170   171    2
    34   170   169    1
    35   166   163    1
    36     6     8   ar
    37     6     7   ar
    38    11     8   ar
    39    11    13   ar
    40   169   168    1
    41   169   172    1
    42   117   115   am
    43   165   164    2
    44   110   109    1
    45   110   113    1
    46   158   157    2
    47   164   168   am
    48   164   163    1
    49     8    10   ar
    50   173   172    1
    51   173   175    1
    52   163   162    1
    53    13    14   ar
    54   157   156    1
    55     7     9   ar
    56   103   102    1
    57   103   104    2
    58   115   116    2
    59   115   114    1
    60   172   174    1
    61   159   156    1
    62   159   160    1
    63   107   106   ar
    64   113   114    1
    65   105   102    1
    66   105   106    1
    67   102   101    1
    68    10     9   ar
    69    10    12   ar
    70   156   155    1
    71    94    93    1
    72   106   108   ar
    73   160   161    1
    74    14    12   ar
    75    98    97    2
    76   155   161    1
    77   155   145   am
    78    93    90    1
    79   101    97   am
    80    97    96    1
    81   146   145    2
    82   145   144    1
    83   147   144    1
    84   147   148    1
    85    89    90    1
    86    89    83   am
    87    90    91    1
    88    92    91    2
    89    55    53   ar
    90    55    57   ar
    91    81    82    1
    92    91    95   am
    93   144   143    1
    94    58    57    1
    95   150   148   ar
    96   150   152   ar
    97    96    95    1
    98    96    99    1
    99   148   149   ar
   100    53    52   ar
   101    82    83    1
   102    82    85    1
   103    21    19    1
   104    57    56   ar
   105    83    84    2
   106   100    99    1
   107    20    19    1
   108   152   153   ar
   109   149   151   ar
   110    19    16    1
   111    52    51    1
   112    52    54   ar
   113    50    49    2
   114    85    86    1
   115   153   151   ar
   116   153   154    1
   117    56    54   ar
   118    48    51    1
   119    48    49    1
   120    48    47    1
   121    87    86   ar
   122    49    59   am
   123    86    88   ar
   124    16    15    1
   125    16    17    1
   126    38    36   am
   127    25    24    2
   128    37    36    2
   129    62    61    2
   130    17    22   am
   131    17    18    2
   132    22    23    1
   133    59    60    1
   134    36    35    1
   135    61    60    1
   136    24    23    1
   137    24    30   am
   138    69    70    1
   139    60    63    1
   140    23    26    1
   141    26    27    1
   142    26    28    1
   143    29    27    1
   144    33    32    2
   145    31    30    1
   146    31    32    1
   147    31    34    1
   148    70    71    1
   149    35    34    1
   150    66    68   ar
   151    66    64   ar
   152    32    39   am
   153    63    64    1
   154    68    67   ar
   155    64    65   ar
   156    39    40    1
   157    71    72    2
   158    67    65   ar
   159    40    43    1
   160    40    41    1
   161    80    78   ar
   162    43    44    1
   163    79    78   ar
   164    41    42    2
   165    78    77    1
   166    44    46    1
   167    44    45    1
   168    73    74    1
   169    77    74    1
   170    74    75    1
   171    75    76    2
