@<TRIPOS>MOLECULE
tmp/3b7tA00.pdb
 203 196 0 0 0
SMALL
GASTEIGER

@<TRIPOS>ATOM
      1  N         36.1240   -2.6060   -8.5470 N.3   134  GLN134     -0.1245
      2  CA        35.5430   -2.0710   -7.3150 C.3   134  GLN134      0.1566
      3  C         34.3760   -2.9860   -6.9180 C.2   134  GLN134      0.2260
      4  O         33.2770   -2.8770   -7.4540 O.2   134  GLN134     -0.2867
      5  CB        35.0470   -0.6360   -7.5350 C.3   134  GLN134      0.0367
      6  CG        34.0960   -0.1350   -6.4510 C.3   134  GLN134      0.0905
      7  CD        34.7430   -0.0610   -5.0800 C.2   134  GLN134      0.2608
      8  OE1       34.0670   -0.2210   -4.0630 O.2   134  GLN134     -0.2717
      9  NE2       36.0560    0.1970   -5.0430 N.am  134  GLN134     -0.0878
     10  N         32.9570   -3.4600   -3.6410 N.3   136  GLN136     -0.1231
     11  CA        32.0330   -3.0080   -2.6010 C.3   136  GLN136      0.1698
     12  C         30.8870   -2.2050   -3.2130 C.2   136  GLN136      0.2592
     13  O         31.1290   -1.2970   -4.0100 O.2   136  GLN136     -0.2718
     14  CB        32.7660   -2.1540   -1.5580 C.3   136  GLN136      0.0381
     15  CG        32.0320   -2.0850   -0.2200 C.3   136  GLN136      0.0905
     16  CD        32.7500   -1.2460    0.8190 C.2   136  GLN136      0.2608
     17  OE1       32.7720   -0.0200    0.7370 O.2   136  GLN136     -0.2717
     18  NE2       33.3490   -1.9070    1.8030 N.am  136  GLN136     -0.0878
     19  N         29.6450   -2.5090   -2.8240 N.am  137  ALA137     -0.1980
     20  CA        29.3350   -3.5460   -1.8340 C.3   137  ALA137      0.1597
     21  C         29.1160   -4.9630   -2.3720 C.2   137  ALA137      0.2287
     22  O         29.6250   -5.9310   -1.7990 O.2   137  ALA137     -0.2864
     23  CB        28.1130   -3.1240   -1.0150 C.3   137  ALA137      0.0319
     24  N         35.2260    6.6590   -5.5750 N.3   267  TYR267     -0.1227
     25  CA        35.3350    7.0840   -4.1790 C.3   267  TYR267      0.1736
     26  C         36.6800    7.7190   -3.7970 C.2   267  TYR267      0.2596
     27  O         37.6060    7.7870   -4.6070 O.2   267  TYR267     -0.2718
     28  CB        35.0540    5.8970   -3.2550 C.3   267  TYR267      0.0548
     29  CG        33.8210    5.1030   -3.6240 C.ar  267  TYR267     -0.0200
     30  CD1       33.8950    4.0370   -4.5220 C.ar  267  TYR267     -0.0009
     31  CD2       32.5770    5.4140   -3.0750 C.ar  267  TYR267     -0.0009
     32  CE1       32.7550    3.2950   -4.8650 C.ar  267  TYR267      0.0417
     33  CE2       31.4310    4.6820   -3.4130 C.ar  267  TYR267      0.0417
     34  CZ        31.5300    3.6230   -4.3060 C.ar  267  TYR267      0.1957
     35  OH        30.4060    2.8920   -4.6270 O.3   267  TYR267     -0.2866
     36  N         36.7740    8.1980   -2.5570 N.am  268  GLY268     -0.1942
     37  CA        38.0090    8.7940   -2.0880 C.3   268  GLY268      0.2014
     38  C         39.0750    7.7380   -1.8360 C.2   268  GLY268      0.2639
     39  O         40.2460    7.9410   -2.1400 O.2   268  GLY268     -0.2714
     40  N         38.6700    6.5980   -1.2890 N.am  269  GLY269     -0.1939
     41  CA        39.6180    5.5360   -1.0140 C.3   269  GLY269      0.2014
     42  C         38.9150    4.2280   -0.7380 C.2   269  GLY269      0.2639
     43  O         37.8100    4.2250   -0.2230 O.2   269  GLY269     -0.2714
     44  N         39.5400    3.1130   -1.0970 N.am  270  MET270     -0.1963
     45  CA        38.9560    1.7970   -0.8620 C.3   270  MET270      0.1736
     46  C         39.9940    0.9760   -0.1010 C.2   270  MET270      0.2616
     47  O         41.1170    0.7970   -0.5700 O.2   270  MET270     -0.2715
     48  CB        38.6040    1.1310   -2.1910 C.3   270  MET270      0.0427
     49  CG        37.8600   -0.1800   -2.0500 C.3   270  MET270      0.0599
     50  SD        36.2960   -0.0160   -1.1480 S.3   270  MET270     -0.1393
     51  CE        36.0940   -1.7010   -0.4530 C.3   270  MET270      0.0692
     52  N         39.6100    0.4740    1.0690 N.am  271  GLU271     -0.1977
     53  CA        40.5110   -0.2780    1.9310 C.3   271  GLU271      0.1602
     54  C         40.8570   -1.7180    1.5440 C.2   271  GLU271      0.2287
     55  O         40.8350   -2.6060    2.3940 O.2   271  GLU271     -0.2864
     56  CB        39.9750   -0.2650    3.3660 C.3   271  GLU271      0.0415
     57  CG        38.7910   -1.2120    3.6410 C.3   271  GLU271      0.1163
     58  CD        37.4400   -0.6120    3.2940 C.2   271  GLU271      0.3649
     59  OE1       36.4050   -1.2130    3.6640 O.co2 271  GLU271     -0.2457
     60  OE2       37.4100    0.4630    2.6540 O.co2 271  GLU271     -0.2457
     61  N         42.1810   10.6900    4.5000 N.3   292  VAL292     -0.1245
     62  CA        41.5330    9.6690    3.6980 C.3   292  VAL292      0.1561
     63  C         42.3670    8.3940    3.7880 C.2   292  VAL292      0.2260
     64  O         41.8440    7.2790    3.6780 O.2   292  VAL292     -0.2867
     65  CB        41.3940   10.1190    2.2320 C.3   292  VAL292      0.0252
     66  CG1       40.9920    8.9510    1.3620 C.3   292  VAL292      0.0019
     67  CG2       40.3340   11.2090    2.1320 C.3   292  VAL292      0.0019
     68  N         41.8020    6.8740    7.2270 N.3   295  HIS295     -0.1226
     69  CA        40.5610    6.1490    7.1900 C.3   295  HIS295      0.1752
     70  C         40.8200    4.7520    6.6450 C.2   295  HIS295      0.2595
     71  O         40.4340    3.7580    7.2560 O.2   295  HIS295     -0.2718
     72  CB        39.5690    6.8600    6.2810 C.3   295  HIS295      0.0759
     73  CG        38.2550    6.1500    6.1600 C.ar  295  HIS295      0.0818
     74  ND1       37.2150    6.3450    7.0450 N.ar  295  HIS295     -0.2268
     75  CD2       37.8210    5.2270    5.2700 C.ar  295  HIS295      0.1154
     76  CE1       36.1980    5.5770    6.7030 C.ar  295  HIS295      0.1986
     77  NE2       36.5390    4.8890    5.6300 N.ar  295  HIS295     -0.2212
     78  N         41.4730    4.6750    5.4900 N.am  296  GLN296     -0.1979
     79  CA        41.7440    3.3800    4.8880 C.3   296  GLN296      0.1601
     80  C         42.5890    2.5420    5.8300 C.2   296  GLN296      0.2287
     81  O         42.2970    1.3690    6.0580 O.2   296  GLN296     -0.2864
     82  CB        42.4360    3.5540    3.5340 C.3   296  GLN296      0.0394
     83  CG        41.7180    4.5370    2.6270 C.3   296  GLN296      0.0908
     84  CD        40.2060    4.3010    2.5600 C.2   296  GLN296      0.2608
     85  OE1       39.4230    5.2490    2.5240 O.2   296  GLN296     -0.2717
     86  NE2       39.7960    3.0420    2.5320 N.am  296  GLN296     -0.0878
     87  N         40.6800    0.6980    8.6270 N.3   299  HIS299     -0.1241
     88  CA        39.9680   -0.5080    8.1710 C.3   299  HIS299      0.1621
     89  C         40.7860   -1.8000    8.2580 C.2   299  HIS299      0.2264
     90  O         40.2220   -2.8960    8.2390 O.2   299  HIS299     -0.2867
     91  CB        39.5230   -0.3530    6.7130 C.3   299  HIS299      0.0745
     92  CG        38.2270    0.3660    6.5400 C.ar  299  HIS299      0.0817
     93  ND1       37.0690   -0.0230    7.1790 N.ar  299  HIS299     -0.2268
     94  CD2       37.8950    1.4330    5.7760 C.ar  299  HIS299      0.1154
     95  CE1       36.0790    0.7730    6.8170 C.ar  299  HIS299      0.1986
     96  NE2       36.5550    1.6650    5.9660 N.ar  299  HIS299     -0.2212
     97  N         26.2080   -2.1440    7.9270 N.3   314  PHE314     -0.1241
     98  CA        27.3050   -1.3900    7.3300 C.3   314  PHE314      0.1605
     99  C         27.8950   -0.3640    8.3000 C.2   314  PHE314      0.2264
    100  O         29.0850   -0.0570    8.2280 O.2   314  PHE314     -0.2867
    101  CB        26.7860   -0.6550    6.0930 C.3   314  PHE314      0.0534
    102  CG        27.8480    0.0880    5.3250 C.ar  314  PHE314     -0.0203
    103  CD1       28.9560   -0.5840    4.8130 C.ar  314  PHE314     -0.0042
    104  CD2       27.7180    1.4500    5.0800 C.ar  314  PHE314     -0.0042
    105  CE1       29.9200    0.0900    4.0620 C.ar  314  PHE314     -0.0003
    106  CE2       28.6790    2.1400    4.3280 C.ar  314  PHE314     -0.0003
    107  CZ        29.7830    1.4540    3.8170 C.ar  314  PHE314     -0.0000
    108  N         31.9850    1.3010    8.9510 N.3   318  GLU318     -0.1245
    109  CA        32.3100    2.7170    8.8300 C.3   318  GLU318      0.1567
    110  C         32.3030    3.5720   10.0820 C.2   318  GLU318      0.2260
    111  O         33.0860    4.5060   10.1930 O.2   318  GLU318     -0.2867
    112  CB        31.4050    3.3460    7.7780 C.3   318  GLU318      0.0388
    113  CG        31.5120    2.6670    6.4180 C.3   318  GLU318      0.1160
    114  CD        32.9340    2.6660    5.8720 C.2   318  GLU318      0.3649
    115  OE1       33.7270    3.5370    6.2770 O.co2 318  GLU318     -0.2457
    116  OE2       33.2640    1.8110    5.0260 O.co2 318  GLU318     -0.2457
    117  N         27.7610   17.3260    8.6290 N.3   348  GLU348     -0.1245
    118  CA        27.5490   16.4780    7.4650 C.3   348  GLU348      0.1567
    119  C         26.3410   15.5600    7.6710 C.2   348  GLU348      0.2260
    120  O         25.7260   15.0970    6.7110 O.2   348  GLU348     -0.2867
    121  CB        28.8060   15.6590    7.1800 C.3   348  GLU348      0.0388
    122  CG        28.7010   14.7350    5.9810 C.3   348  GLU348      0.1160
    123  CD        28.2590   15.4520    4.7140 C.2   348  GLU348      0.3649
    124  OE1       28.8080   16.5390    4.4210 O.co2 348  GLU348     -0.2457
    125  OE2       27.3670   14.9180    4.0110 O.co2 348  GLU348     -0.2457
    126  N         22.1440   -1.4870   -2.6990 N.3   374  PRO374     -0.2102
    127  CA        23.0440   -0.8330   -1.7420 C.3   374  PRO374      0.1504
    128  C         23.6730    0.4750   -2.2570 C.2   374  PRO374      0.2575
    129  O         23.8900    1.4070   -1.4780 O.2   374  PRO374     -0.2718
    130  CB        24.0780   -1.9140   -1.4590 C.3   374  PRO374      0.0282
    131  CG        23.2470   -3.1600   -1.5200 C.3   374  PRO374      0.0208
    132  CD        22.4150   -2.9330   -2.7670 C.3   374  PRO374      0.0893
    133  N         23.9640    0.5400   -3.5580 N.am  375  ASP375     -0.1974
    134  CA        24.5610    1.7360   -4.1680 C.3   375  ASP375      0.1708
    135  C         23.6530    2.9550   -4.0260 C.2   375  ASP375      0.2293
    136  O         24.1160    4.0950   -3.9290 O.2   375  ASP375     -0.2864
    137  CB        24.8300    1.4880   -5.6530 C.3   375  ASP375      0.1436
    138  CG        25.9380    0.4760   -5.8860 C.2   375  ASP375      0.3671
    139  OD1       26.0200   -0.0680   -7.0080 O.co2 375  ASP375     -0.2456
    140  OD2       26.7350    0.2290   -4.9540 O.co2 375  ASP375     -0.2456
    141  N         23.5590    4.0950   -0.0420 N.3   378  TYR378     -0.1227
    142  CA        24.8290    4.6580    0.4220 C.3   378  TYR378      0.1736
    143  C         24.7560    6.1680    0.6800 C.2   378  TYR378      0.2596
    144  O         24.1820    6.9190   -0.1160 O.2   378  TYR378     -0.2718
    145  CB        25.9190    4.3630   -0.6160 C.3   378  TYR378      0.0548
    146  CG        27.3200    4.7950   -0.2240 C.ar  378  TYR378     -0.0200
    147  CD1       28.0170    4.1570    0.8080 C.ar  378  TYR378     -0.0009
    148  CD2       27.9570    5.8330   -0.8990 C.ar  378  TYR378     -0.0009
    149  CE1       29.3170    4.5470    1.1500 C.ar  378  TYR378      0.0417
    150  CE2       29.2470    6.2280   -0.5650 C.ar  378  TYR378      0.0417
    151  CZ        29.9230    5.5860    0.4570 C.ar  378  TYR378      0.1957
    152  OH        31.2030    6.0030    0.7720 O.3   378  TYR378     -0.2866
    153  N         25.3420    6.6110    1.7920 N.am  379  SER379     -0.1938
    154  CA        25.3440    8.0330    2.1470 C.3   379  SER379      0.2055
    155  C         26.2800    8.2880    3.3170 C.2   379  SER379      0.2643
    156  O         27.0830    7.4250    3.6780 O.2   379  SER379     -0.2714
    157  CB        23.9400    8.5050    2.5250 C.3   379  SER379      0.2130
    158  OG        23.5150    7.9120    3.7430 O.3   379  SER379     -0.2179
    159  N         26.1590    9.4700    3.9160 N.am  380  SER380     -0.1949
    160  CA        27.0020    9.8510    5.0430 C.3   380  SER380      0.1924
    161  C         26.4500    9.3900    6.3940 C.2   380  SER380      0.2314
    162  O         27.1360    9.4470    7.4110 O.2   380  SER380     -0.2863
    163  CB        27.1810   11.3650    5.0570 C.3   380  SER380      0.2116
    164  OG        27.7650   11.8100    3.8460 O.3   380  SER380     -0.2180
    165  N         28.2750    6.6960    8.4310 N.3   383  TYR383     -0.1241
    166  CA        29.5530    7.2660    8.8690 C.3   383  TYR383      0.1605
    167  C         29.3610    8.2020   10.0500 C.2   383  TYR383      0.2264
    168  O         29.9100    7.9840   11.1240 O.2   383  TYR383     -0.2867
    169  CB        30.2340    8.0690    7.7460 C.3   383  TYR383      0.0534
    170  CG        30.6030    7.2590    6.5410 C.ar  383  TYR383     -0.0201
    171  CD1       29.6420    6.9120    5.5930 C.ar  383  TYR383     -0.0009
    172  CD2       31.9060    6.7890    6.3690 C.ar  383  TYR383     -0.0009
    173  CE1       29.9680    6.1120    4.5070 C.ar  383  TYR383      0.0417
    174  CE2       32.2380    5.9890    5.2890 C.ar  383  TYR383      0.0417
    175  CZ        31.2650    5.6540    4.3630 C.ar  383  TYR383      0.1957
    176  OH        31.5890    4.8530    3.2930 O.3   383  TYR383     -0.2866
    177  N         34.8420   11.3890   -8.7900 N.3   563  ARG563     -0.1245
    178  CA        34.6070   11.0170   -7.3990 C.3   563  ARG563      0.1563
    179  C         33.1420   11.3590   -7.1830 C.2   563  ARG563      0.2260
    180  O         32.7600   12.5290   -7.2930 O.2   563  ARG563     -0.2867
    181  CB        35.4990   11.8460   -6.4700 C.3   563  ARG563      0.0307
    182  CG        35.4350   11.4630   -4.9990 C.3   563  ARG563      0.0489
    183  CD        36.5090   12.2100   -4.2430 C.3   563  ARG563      0.2205
    184  NE        36.5110   11.9310   -2.8120 N.pl3 563  ARG563     -0.0865
    185  CZ        37.3850   12.4620   -1.9630 C.cat 563  ARG563      0.5346
    186  NH1       38.3180   13.2930   -2.4140 N.pl3 563  ARG563      0.1354
    187  NH2       37.3270   12.1690   -0.6710 N.pl3 563  ARG563      0.1354
    188  N         31.3560   11.8320   -4.6800 N.3   565  LYS565     -0.1245
    189  CA        31.1550   12.8580   -3.6600 C.3   565  LYS565      0.1561
    190  C         31.0660   14.2790   -4.2640 C.2   565  LYS565      0.2260
    191  O         30.4450   15.1700   -3.6840 O.2   565  LYS565     -0.2867
    192  CB        32.3050   12.8020   -2.6530 C.3   565  LYS565      0.0271
    193  CG        32.1800   13.7940   -1.5160 C.3   565  LYS565      0.0035
    194  CD        33.4290   13.7890   -0.6480 C.3   565  LYS565      0.0206
    195  CE        33.2720   14.7360    0.5260 C.3   565  LYS565      0.1093
    196  NZ        34.4520   14.6850    1.4260 N.3   565  LYS565     -0.1314
    197  N         26.8050   15.8050   -6.6800 N.3   569  PRO569     -0.2116
    198  CA        26.2040   17.0780   -6.2800 C.3   569  PRO569      0.1372
    199  C         26.3330   18.1490   -7.3770 C.2   569  PRO569      0.2244
    200  O         25.4210   18.9520   -7.5640 O.2   569  PRO569     -0.2868
    201  CB        26.9800   17.4390   -5.0140 C.3   569  PRO569      0.0268
    202  CG        27.3550   16.0780   -4.4500 C.3   569  PRO569      0.0207
    203  CD        27.7880   15.3380   -5.6840 C.3   569  PRO569      0.0892
@<TRIPOS>BOND
     1   177   178    1
     2     1     2    1
     3   200   199    2
     4     5     2    1
     5     5     6    1
     6     4     3    2
     7   178   179    1
     8   178   181    1
     9   199   198    1
    10     2     3    1
    11   180   179    2
    12   139   138   ar
    13   197   198    1
    14   197   203    1
    15   181   182    1
    16     6     7    1
    17   198   201    1
    18   138   137    1
    19   138   140   ar
    20   203   202    1
    21   137   134    1
    22    24    25    1
    23     7     9   am
    24     7     8    2
    25   201   202    1
    26   182   183    1
    27    32    30   ar
    28    32    34   ar
    29   188   189    1
    30    35    34    1
    31    27    26    2
    32    30    29   ar
    33    34    33   ar
    34   190   191    2
    35   190   189    1
    36   183   184    1
    37    25    26    1
    38    25    28    1
    39   134   135    1
    40   134   133    1
    41   135   136    2
    42    13    12    2
    43    26    36   am
    44   189   192    1
    45    10    11    1
    46    29    28    1
    47    29    31   ar
    48   133   128   am
    49    33    31   ar
    50    12    19   am
    51    12    11    1
    52    19    20    1
    53   184   185    2
    54   132   126    1
    55   132   131    1
    56   126   127    1
    57   192   193    1
    58    11    14    1
    59    36    37    1
    60   186   185    1
    61    21    20    1
    62    21    22    2
    63   128   127    1
    64   128   129    2
    65    48    49    1
    66    48    45    1
    67    39    38    2
    68    37    38    1
    69    49    50    1
    70   185   187    1
    71    38    40   am
    72    20    23    1
    73   127   130    1
    74    14    15    1
    75   131   130    1
    76   193   194    1
    77    40    41    1
    78    50    51    1
    79    44    45    1
    80    44    42   am
    81    41    42    1
    82   148   150   ar
    83   148   146   ar
    84    45    46    1
    85    42    43    2
    86   194   195    1
    87   145   146    1
    88   145   142    1
    89    47    46    2
    90   150   151   ar
    91   146   147   ar
    92    15    16    1
    93   144   143    2
    94    46    52   am
    95   141   142    1
    96   142   143    1
    97   151   152    1
    98   151   149   ar
    99   195   196    1
   100   143   153   am
   101    17    16    2
   102   147   149   ar
   103    16    18   am
   104    52    53    1
   105    66    65    1
   106    54    53    1
   107    54    55    2
   108   153   154    1
   109    53    56    1
   110    67    65    1
   111   154   157    1
   112   154   155    1
   113    65    62    1
   114    85    84    2
   115   157   158    1
   116    86    84   am
   117    84    83    1
   118    83    82    1
   119    60    58   ar
   120   176   175    1
   121    58    57    1
   122    58    59   ar
   123   155   156    2
   124   155   159   am
   125    56    57    1
   126    82    79    1
   127    64    63    2
   128    62    63    1
   129    62    61    1
   130   107   105   ar
   131   107   106   ar
   132   164   163    1
   133   159   160    1
   134   125   123   ar
   135   105   103   ar
   136   106   104   ar
   137   175   173   ar
   138   175   174   ar
   139   124   123   ar
   140   173   171   ar
   141   123   122    1
   142   103   102   ar
   143    79    78    1
   144    79    80    1
   145   116   114   ar
   146   160   163    1
   147   160   161    1
   148   104   102   ar
   149    75    77   ar
   150    75    73   ar
   151   174   172   ar
   152   102   101    1
   153    78    70   am
   154   171   170   ar
   155    77    76   ar
   156    94    96   ar
   157    94    92   ar
   158    80    81    2
   159   114   115   ar
   160   114   113    1
   161    96    95   ar
   162   122   121    1
   163   101    98    1
   164    73    72    1
   165    73    74   ar
   166    72    69    1
   167   172   170   ar
   168   161   162    2
   169   113   112    1
   170    92    91    1
   171    92    93   ar
   172   170   169    1
   173    70    69    1
   174    70    71    2
   175    76    74   ar
   176   120   119    2
   177    91    88    1
   178    95    93   ar
   179   121   118    1
   180    69    68    1
   181    98    97    1
   182    98    99    1
   183   118   119    1
   184   118   117    1
   185   169   166    1
   186   112   109    1
   187    88    89    1
   188    88    87    1
   189   100    99    2
   190    90    89    2
   191   165   166    1
   192   109   108    1
   193   109   110    1
   194   166   167    1
   195   167   168    2
   196   110   111    2
