@<TRIPOS>MOLECULE
tmp/3b7uA00.pdb
 178 172 0 0 0
SMALL
GASTEIGER

@<TRIPOS>ATOM
      1  N         32.6750   -3.5200   -3.6470 N.3   136  GLN136     -0.1245
      2  CA        31.7530   -3.1090   -2.6030 C.3   136  GLN136      0.1566
      3  C         30.5460   -2.3110   -3.1520 C.2   136  GLN136      0.2260
      4  O         30.7450   -1.4170   -3.9640 O.2   136  GLN136     -0.2867
      5  CB        32.4490   -2.2430   -1.5390 C.3   136  GLN136      0.0367
      6  CG        31.6500   -2.1830   -0.2520 C.3   136  GLN136      0.0905
      7  CD        32.2400   -1.2330    0.7500 C.2   136  GLN136      0.2608
      8  OE1       32.2010   -0.0130    0.5570 O.2   136  GLN136     -0.2717
      9  NE2       32.7430   -1.7620    1.8250 N.am  136  GLN136     -0.0878
     10  N         35.1560    6.0710   -8.3360 N.pl3 266  PRO266     -0.2287
     11  CA        33.9280    6.6560   -7.7730 C.3   266  PRO266      0.1743
     12  C         33.9820    7.0980   -6.3250 C.2   266  PRO266      0.2619
     13  O         33.1110    7.8860   -5.9150 O.2   266  PRO266     -0.2715
     14  CB        32.8560    5.5450   -7.9830 C.3   266  PRO266      0.0584
     15  CG        33.5870    4.3390   -8.4670 C.2   266  PRO266     -0.0065
     16  CD        34.9850    4.6510   -8.6940 C.2   266  PRO266      0.0761
     17  N         34.9770    6.6370   -5.5500 N.am  267  TYR267     -0.1960
     18  CA        34.9960    6.9590   -4.1190 C.3   267  TYR267      0.1771
     19  C         36.2730    7.7450   -3.7330 C.2   267  TYR267      0.2620
     20  O         37.2360    7.7400   -4.5310 O.2   267  TYR267     -0.2715
     21  CB        34.9610    5.6550   -3.3400 C.3   267  TYR267      0.0574
     22  CG        33.6340    4.9530   -3.5210 C.ar  267  TYR267     -0.0198
     23  CD1       33.4810    3.9470   -4.4660 C.ar  267  TYR267     -0.0009
     24  CD2       32.5270    5.3370   -2.7650 C.ar  267  TYR267     -0.0009
     25  CE1       32.2700    3.3270   -4.6860 C.ar  267  TYR267      0.0417
     26  CE2       31.2740    4.7180   -2.9690 C.ar  267  TYR267      0.0417
     27  CZ        31.1620    3.6980   -3.9230 C.ar  267  TYR267      0.1957
     28  OH        29.9560    3.0630   -4.1510 O.3   267  TYR267     -0.2866
     29  N         36.3200    8.2960   -2.5090 N.am  268  GLY268     -0.1940
     30  CA        37.5740    8.8720   -2.0150 C.3   268  GLY268      0.2014
     31  C         38.6450    7.7680   -1.8250 C.2   268  GLY268      0.2639
     32  O         39.8220    7.9570   -2.1620 O.2   268  GLY268     -0.2714
     33  N         38.2410    6.6430   -1.2270 N.am  269  GLY269     -0.1939
     34  CA        39.1650    5.5350   -1.0140 C.3   269  GLY269      0.2014
     35  C         38.3810    4.2230   -0.8570 C.2   269  GLY269      0.2639
     36  O         37.1810    4.2180   -0.5700 O.2   269  GLY269     -0.2714
     37  N         39.0530    3.1070   -1.0670 N.am  270  MET270     -0.1963
     38  CA        38.4290    1.8090   -0.8510 C.3   270  MET270      0.1736
     39  C         39.4790    0.9360   -0.1760 C.2   270  MET270      0.2616
     40  O         40.6380    0.8700   -0.6110 O.2   270  MET270     -0.2715
     41  CB        37.9230    1.1720   -2.1520 C.3   270  MET270      0.0427
     42  CG        37.5150   -0.2870   -1.9170 C.3   270  MET270      0.0599
     43  SD        36.0020   -0.2620   -0.9840 S.3   270  MET270     -0.1393
     44  CE        36.0340   -1.9550   -0.4160 C.3   270  MET270      0.0692
     45  N         39.0570    0.2880    0.9040 N.am  271  GLU271     -0.1977
     46  CA        40.0110   -0.3400    1.8620 C.3   271  GLU271      0.1602
     47  C         40.4610   -1.7630    1.4350 C.2   271  GLU271      0.2287
     48  O         40.4950   -2.7060    2.2340 O.2   271  GLU271     -0.2864
     49  CB        39.3370   -0.3590    3.2190 C.3   271  GLU271      0.0415
     50  CG        38.1320   -1.3040    3.3200 C.3   271  GLU271      0.1163
     51  CD        36.7670   -0.6020    3.2020 C.2   271  GLU271      0.3649
     52  OE1       35.7610   -1.0920    3.8210 O.co2 271  GLU271     -0.2457
     53  OE2       36.6660    0.4250    2.5150 O.co2 271  GLU271     -0.2457
     54  N         43.0410   12.5700    5.7130 N.3   291  ASN291     -0.1225
     55  CA        42.1540   11.8590    6.6160 C.3   291  ASN291      0.1785
     56  C         41.6040   10.6400    5.8950 C.2   291  ASN291      0.2597
     57  O         41.1970    9.6800    6.5340 O.2   291  ASN291     -0.2718
     58  CB        41.0050   12.7670    7.0680 C.3   291  ASN291      0.1169
     59  CG        40.1220   13.1920    5.9520 C.2   291  ASN291      0.2627
     60  OD1       40.5340   13.9420    5.0640 O.2   291  ASN291     -0.2716
     61  ND2       38.8710   12.6960    5.9580 N.am  291  ASN291     -0.0877
     62  N         41.5560   10.7250    4.5680 N.am  292  VAL292     -0.1980
     63  CA        41.0750    9.6130    3.7340 C.3   292  VAL292      0.1595
     64  C         42.0290    8.4230    3.8930 C.2   292  VAL292      0.2287
     65  O         41.5700    7.3060    4.0810 O.2   292  VAL292     -0.2864
     66  CB        40.8680   10.0510    2.2330 C.3   292  VAL292      0.0276
     67  CG1       40.4310    8.8880    1.3630 C.3   292  VAL292      0.0022
     68  CG2       39.8800   11.2520    2.1570 C.3   292  VAL292      0.0022
     69  N         41.4010    6.9980    7.2880 N.3   295  HIS295     -0.1226
     70  CA        40.1920    6.2050    7.2230 C.3   295  HIS295      0.1752
     71  C         40.4450    4.8180    6.5960 C.2   295  HIS295      0.2595
     72  O         40.0440    3.7960    7.1600 O.2   295  HIS295     -0.2718
     73  CB        39.1750    6.9480    6.3890 C.3   295  HIS295      0.0759
     74  CG        37.8480    6.2620    6.3270 C.ar  295  HIS295      0.0818
     75  ND1       36.8070    6.5890    7.1780 N.ar  295  HIS295     -0.2268
     76  CD2       37.3660    5.3090    5.4870 C.ar  295  HIS295      0.1154
     77  CE1       35.7670    5.8220    6.9100 C.ar  295  HIS295      0.1986
     78  NE2       36.0580    5.0800    5.8590 N.ar  295  HIS295     -0.2212
     79  N         41.0940    4.7680    5.4300 N.am  296  GLU296     -0.1979
     80  CA        41.2860    3.4400    4.8280 C.3   296  GLU296      0.1602
     81  C         42.1810    2.5580    5.6800 C.2   296  GLU296      0.2287
     82  O         41.9850    1.3640    5.7650 O.2   296  GLU296     -0.2864
     83  CB        41.8440    3.5380    3.4050 C.3   296  GLU296      0.0415
     84  CG        40.9840    4.4310    2.5030 C.3   296  GLU296      0.1163
     85  CD        39.5000    4.0280    2.4170 C.2   296  GLU296      0.3649
     86  OE1       38.6480    4.8760    2.0550 O.co2 296  GLU296     -0.2457
     87  OE2       39.1680    2.8650    2.6890 O.co2 296  GLU296     -0.2457
     88  N         40.1910    0.7760    8.4300 N.3   299  HIS299     -0.1241
     89  CA        39.4460   -0.4060    7.9630 C.3   299  HIS299      0.1621
     90  C         40.2420   -1.6880    8.0860 C.2   299  HIS299      0.2264
     91  O         39.6670   -2.7860    8.1260 O.2   299  HIS299     -0.2867
     92  CB        38.9970   -0.2410    6.4860 C.3   299  HIS299      0.0745
     93  CG        37.7040    0.5000    6.3060 C.ar  299  HIS299      0.0817
     94  ND1       36.5360    0.0800    6.9280 N.ar  299  HIS299     -0.2268
     95  CD2       37.3950    1.6250    5.6280 C.ar  299  HIS299      0.1154
     96  CE1       35.5520    0.8920    6.6050 C.ar  299  HIS299      0.1986
     97  NE2       36.0340    1.8140    5.7850 N.ar  299  HIS299     -0.2212
     98  N         31.5810    1.4900    8.9930 N.3   318  GLU318     -0.1245
     99  CA        31.9920    2.8750    8.7880 C.3   318  GLU318      0.1567
    100  C         32.0300    3.7580   10.0350 C.2   318  GLU318      0.2260
    101  O         32.8900    4.6200   10.1490 O.2   318  GLU318     -0.2867
    102  CB        31.1550    3.5300    7.6800 C.3   318  GLU318      0.0388
    103  CG        31.1540    2.7320    6.3620 C.3   318  GLU318      0.1160
    104  CD        32.5590    2.6570    5.7510 C.2   318  GLU318      0.3649
    105  OE1       33.3390    3.5050    6.1140 O.co2 318  GLU318     -0.2457
    106  OE2       32.8240    1.8280    4.8990 O.co2 318  GLU318     -0.2457
    107  N         35.4100    5.7210   11.1140 N.3   322  VAL322     -0.1245
    108  CA        35.4520    7.1750   11.2510 C.3   322  VAL322      0.1561
    109  C         35.9190    7.5550   12.6380 C.2   322  VAL322      0.2260
    110  O         36.7260    8.4870   12.7910 O.2   322  VAL322     -0.2867
    111  CB        34.0890    7.8720   10.8720 C.3   322  VAL322      0.0252
    112  CG1       34.1660    9.4050   11.1350 C.3   322  VAL322      0.0019
    113  CG2       33.7740    7.6300    9.3790 C.3   322  VAL322      0.0019
    114  N         39.7180    6.8310   12.4780 N.3   325  GLU325     -0.1245
    115  CA        40.2170    7.9030   11.5990 C.3   325  GLU325      0.1567
    116  C         40.4150    9.2250   12.3650 C.2   325  GLU325      0.2260
    117  O         41.4620    9.9020   12.2920 O.2   325  GLU325     -0.2867
    118  CB        39.1980    8.1660   10.4620 C.3   325  GLU325      0.0388
    119  CG        39.4670    9.4020    9.5650 C.3   325  GLU325      0.1160
    120  CD        38.1950    9.8350    8.8150 C.2   325  GLU325      0.3649
    121  OE1       37.2860    8.9640    8.6240 O.co2 325  GLU325     -0.2457
    122  OE2       38.0570   11.0280    8.4490 O.co2 325  GLU325     -0.2457
    123  N         23.3520    4.3030   -0.3700 N.3   378  TYR378     -0.1227
    124  CA        24.6490    4.8150    0.0590 C.3   378  TYR378      0.1736
    125  C         24.6070    6.3380    0.3820 C.2   378  TYR378      0.2596
    126  O         24.1650    7.1380   -0.4540 O.2   378  TYR378     -0.2718
    127  CB        25.7370    4.5040   -0.9900 C.3   378  TYR378      0.0548
    128  CG        27.1420    4.9520   -0.4740 C.ar  378  TYR378     -0.0200
    129  CD1       27.8690    4.1700    0.4150 C.ar  378  TYR378     -0.0009
    130  CD2       27.7090    6.1420   -0.8930 C.ar  378  TYR378     -0.0009
    131  CE1       29.1480    4.5810    0.8920 C.ar  378  TYR378      0.0417
    132  CE2       28.9490    6.5440   -0.4380 C.ar  378  TYR378      0.0417
    133  CZ        29.6560    5.7900    0.4650 C.ar  378  TYR378      0.1957
    134  OH        30.9140    6.1940    0.9060 O.3   378  TYR378     -0.2866
    135  N         25.0530    6.7250    1.5930 N.am  379  SER379     -0.1938
    136  CA        25.1470    8.1390    2.0320 C.3   379  SER379      0.2055
    137  C         26.1180    8.3080    3.2160 C.2   379  SER379      0.2643
    138  O         26.7150    7.3300    3.6910 O.2   379  SER379     -0.2714
    139  CB        23.7800    8.6540    2.4930 C.3   379  SER379      0.2130
    140  OG        23.4040    8.0720    3.7450 O.3   379  SER379     -0.2179
    141  N         26.2430    9.5420    3.7080 N.am  380  SER380     -0.1949
    142  CA        27.0270    9.8310    4.9190 C.3   380  SER380      0.1924
    143  C         26.3790    9.3590    6.1790 C.2   380  SER380      0.2314
    144  O         26.9460    9.4770    7.2570 O.2   380  SER380     -0.2863
    145  CB        27.1860   11.3260    5.1150 C.3   380  SER380      0.2116
    146  OG        27.7510   11.9200    3.9620 O.3   380  SER380     -0.2180
    147  N         28.2160    6.6160    8.2550 N.3   383  TYR383     -0.1241
    148  CA        29.4810    7.2540    8.7240 C.3   383  TYR383      0.1605
    149  C         29.2820    8.1780    9.9350 C.2   383  TYR383      0.2264
    150  O         30.0150    8.0590   10.9520 O.2   383  TYR383     -0.2867
    151  CB        30.0900    8.1190    7.6270 C.3   383  TYR383      0.0534
    152  CG        30.4870    7.3070    6.4450 C.ar  383  TYR383     -0.0201
    153  CD1       29.5460    6.8750    5.5060 C.ar  383  TYR383     -0.0009
    154  CD2       31.8160    6.9580    6.2490 C.ar  383  TYR383     -0.0009
    155  CE1       29.9300    6.0810    4.4050 C.ar  383  TYR383      0.0417
    156  CE2       32.2020    6.2090    5.1440 C.ar  383  TYR383      0.0417
    157  CZ        31.2670    5.7650    4.2300 C.ar  383  TYR383      0.1957
    158  OH        31.6890    4.9900    3.1620 O.3   383  TYR383     -0.2866
    159  N         34.6530   11.2920   -8.9420 N.3   563  ARG563     -0.1245
    160  CA        34.3720   10.9390   -7.5740 C.3   563  ARG563      0.1563
    161  C         32.9150   11.3410   -7.3140 C.2   563  ARG563      0.2260
    162  O         32.5170   12.4650   -7.5870 O.2   563  ARG563     -0.2867
    163  CB        35.3700   11.6290   -6.6520 C.3   563  ARG563      0.0307
    164  CG        35.2140   11.2670   -5.2240 C.3   563  ARG563      0.0489
    165  CD        36.2410   12.0040   -4.4290 C.3   563  ARG563      0.2205
    166  NE        36.1280   11.8310   -2.9880 N.pl3 563  ARG563     -0.0865
    167  CZ        36.9340   12.4570   -2.1190 C.cat 563  ARG563      0.5346
    168  NH1       37.9630   13.2710   -2.5260 N.pl3 563  ARG563      0.1354
    169  NH2       36.7090   12.2400   -0.8440 N.pl3 563  ARG563      0.1354
    170  N         30.9650   11.8490   -4.7230 N.3   565  LYS565     -0.1245
    171  CA        30.8660   12.9260   -3.7220 C.3   565  LYS565      0.1561
    172  C         30.7630   14.2670   -4.4230 C.2   565  LYS565      0.2260
    173  O         30.0440   15.1580   -3.9620 O.2   565  LYS565     -0.2867
    174  CB        32.1600   12.9620   -2.8800 C.3   565  LYS565      0.0271
    175  CG        32.1590   14.0180   -1.7420 C.3   565  LYS565      0.0035
    176  CD        33.3950   13.9190   -0.8600 C.3   565  LYS565      0.0206
    177  CE        33.2800   14.8820    0.3730 C.3   565  LYS565      0.1093
    178  NZ        34.4400   14.6170    1.3720 N.3   565  LYS565     -0.1314
@<TRIPOS>BOND
     1   159   160    1
     2    16    15    2
     3    16    10    1
     4    15    14    1
     5    10    11    1
     6    14    11    1
     7    11    12    1
     8   162   161    2
     9   160   161    1
    10   160   163    1
    11   163   164    1
    12    12    13    2
    13    12    17   am
    14    17    18    1
    15   164   165    1
    16   170   171    1
    17    25    23   ar
    18    25    27   ar
    19    20    19    2
    20    23    22   ar
    21   165   166    1
    22   172   173    2
    23   172   171    1
    24    28    27    1
    25    18    19    1
    26    18    21    1
    27     4     3    2
    28    27    26   ar
    29    19    29   am
    30   171   174    1
    31     1     2    1
    32    22    21    1
    33    22    24   ar
    34     3     2    1
    35   166   167    2
    36    26    24   ar
    37   174   175    1
    38     2     5    1
    39   168   167    1
    40    29    30    1
    41    32    31    2
    42    41    42    1
    43    41    38    1
    44   167   169    1
    45    30    31    1
    46    42    43    1
    47    31    33   am
    48   175   176    1
    49     5     6    1
    50    33    34    1
    51    37    35   am
    52    37    38    1
    53    34    35    1
    54   127   128    1
    55   127   124    1
    56    43    44    1
    57   130   128   ar
    58   130   132   ar
    59   176   177    1
    60    35    36    2
    61    38    39    1
    62    40    39    2
    63   128   129   ar
    64   126   125    2
    65   132   133   ar
    66   123   124    1
    67     6     7    1
    68    39    45   am
    69   124   125    1
    70   177   178    1
    71   125   135   am
    72   129   131   ar
    73   133   131   ar
    74   133   134    1
    75     8     7    2
    76     7     9   am
    77    45    46    1
    78    67    66    1
    79    47    46    1
    80    47    48    2
    81   135   136    1
    82    46    49    1
    83   136   139    1
    84   136   137    1
    85    86    85   ar
    86    68    66    1
    87    66    63    1
    88    85    84    1
    89    85    87   ar
    90   139   140    1
    91    84    83    1
    92    53    51   ar
    93   158   157    1
    94    51    50    1
    95    51    52   ar
    96   137   138    2
    97   137   141   am
    98    49    50    1
    99    83    80    1
   100   141   142    1
   101    63    64    1
   102    63    62    1
   103    64    65    2
   104   146   145    1
   105   157   155   ar
   106   157   156   ar
   107   155   153   ar
   108    62    56   am
   109    80    79    1
   110    80    81    1
   111   106   104   ar
   112   142   145    1
   113   142   143    1
   114    60    59    2
   115   156   154   ar
   116    79    71   am
   117    76    78   ar
   118    76    74   ar
   119   153   152   ar
   120    95    97   ar
   121    95    93   ar
   122    81    82    2
   123    54    55    1
   124   104   105   ar
   125   104   103    1
   126    97    96   ar
   127    78    77   ar
   128    56    57    2
   129    56    55    1
   130    59    61   am
   131    59    58    1
   132   143   144    2
   133   154   152   ar
   134    93    92    1
   135    93    94   ar
   136    74    73    1
   137    74    75   ar
   138   103   102    1
   139    73    70    1
   140   152   151    1
   141    92    89    1
   142    71    72    2
   143    71    70    1
   144    96    94   ar
   145    55    58    1
   146    77    75   ar
   147    70    69    1
   148   151   148    1
   149   102    99    1
   150    89    90    1
   151    89    88    1
   152    90    91    2
   153   147   148    1
   154   122   120   ar
   155   121   120   ar
   156   148   149    1
   157    99    98    1
   158    99   100    1
   159   120   119    1
   160   113   111    1
   161   119   118    1
   162   149   150    2
   163   100   101    2
   164   118   115    1
   165   111   112    1
   166   111   108    1
   167   107   108    1
   168   108   109    1
   169   115   116    1
   170   115   114    1
   171   117   116    2
   172   109   110    2
