@<TRIPOS>MOLECULE
tmp/3b7vB00.pdb
 133 126 0 0 0
SMALL
GASTEIGER

@<TRIPOS>ATOM
      1  N         20.1570   34.4540   24.6430 N.3     8  ARG8       -0.1245
      2  CA        19.4540   33.1740   24.8220 C.3     8  ARG8        0.1563
      3  C         18.5110   33.2060   26.0120 C.2     8  ARG8        0.2260
      4  O         18.9590   33.6400   27.1030 O.2     8  ARG8       -0.2867
      5  CB        20.4590   32.0450   24.9950 C.3     8  ARG8        0.0307
      6  CG        21.4170   31.9220   23.8290 C.3     8  ARG8        0.0489
      7  CD        22.2880   30.6790   23.9510 C.3     8  ARG8        0.2205
      8  NE        23.0390   30.4620   22.7190 N.pl3   8  ARG8       -0.0865
      9  CZ        24.1720   29.7760   22.6090 C.cat   8  ARG8        0.5346
     10  NH1       24.7240   29.2120   23.6780 N.pl3   8  ARG8        0.1354
     11  NH2       24.7330   29.6690   21.4180 N.pl3   8  ARG8        0.1354
     12  N         17.0570   26.2610   28.3330 N.3    23  LEU23      -0.1245
     13  CA        16.5840   27.1920   27.3380 C.3    23  LEU23       0.1561
     14  C         15.0940   27.1000   27.1270 C.2    23  LEU23       0.2260
     15  O         14.6010   25.9820   26.8510 O.2    23  LEU23      -0.2867
     16  CB        17.3960   26.8330   26.0990 C.3    23  LEU23       0.0270
     17  CG        17.4490   27.7030   24.8970 C.3    23  LEU23       0.0019
     18  CD1       18.0880   29.0470   25.1970 C.3    23  LEU23       0.0001
     19  CD2       18.2620   27.0290   23.7940 C.3    23  LEU23       0.0001
     20  N         12.3190   27.0260   24.7810 N.3    25  ASP25      -0.1239
     21  CA        12.3910   26.7870   23.3600 C.3    25  ASP25       0.1674
     22  C         11.0620   26.5320   22.6690 C.2    25  ASP25       0.2266
     23  O         10.5120   25.3950   22.6990 O.2    25  ASP25      -0.2867
     24  CB        13.2420   25.5390   23.1140 C.3    25  ASP25       0.1410
     25  CG        13.5460   25.3480   21.6300 C.2    25  ASP25       0.3668
     26  OD1       13.0390   26.0750   20.7470 O.co2  25  ASP25      -0.2456
     27  OD2       14.3540   24.3900   21.4020 O.co2  25  ASP25      -0.2456
     28  N         10.4370   26.2630   19.6360 N.3    27  GLY27      -0.1210
     29  CA        10.6580   25.3720   18.4920 C.3    27  GLY27       0.1956
     30  C         10.7470   23.9130   18.8550 C.2    27  GLY27       0.2612
     31  O         10.9170   23.0780   17.9670 O.2    27  GLY27      -0.2717
     32  N         10.6390   23.5720   20.1320 N.am   28  ALA28      -0.1965
     33  CA        10.7190   22.1960   20.6140 C.3    28  ALA28       0.1728
     34  C          9.3620   21.6710   21.0500 C.2    28  ALA28       0.2616
     35  O          8.7170   22.2990   21.8740 O.2    28  ALA28      -0.2715
     36  CB        11.7210   22.0950   21.7650 C.3    28  ALA28       0.0334
     37  N          8.9330   20.5290   20.4990 N.am   29  ASP29      -0.1957
     38  CA         7.6970   19.9610   20.9930 C.3    29  ASP29       0.1840
     39  C          7.7820   19.4950   22.4400 C.2    29  ASP29       0.2622
     40  O          6.8090   19.5600   23.2070 O.2    29  ASP29      -0.2715
     41  CB         7.3040   18.7510   20.1580 C.3    29  ASP29       0.1450
     42  CG         6.9440   19.0030   18.7150 C.2    29  ASP29       0.3671
     43  OD1        6.7070   20.1510   18.2920 O.co2  29  ASP29      -0.2456
     44  OD2        6.8870   18.0280   17.9420 O.co2  29  ASP29      -0.2456
     45  N          8.9640   19.0250   22.7940 N.am   30  ASP30      -0.1971
     46  CA         9.2670   18.2620   23.9710 C.3    30  ASP30       0.1709
     47  C         10.4300   18.8400   24.7510 C.2    30  ASP30       0.2293
     48  O         11.2580   19.5500   24.1920 O.2    30  ASP30      -0.2864
     49  CB         9.6730   16.8320   23.6260 C.3    30  ASP30       0.1436
     50  CG         8.8150   16.1410   22.5990 C.2    30  ASP30       0.3671
     51  OD1        7.6260   15.9010   22.8880 O.co2  30  ASP30      -0.2456
     52  OD2        9.3380   15.8310   21.4800 O.co2  30  ASP30      -0.2456
     53  N         13.8630   18.3040   26.8080 N.3    32  VAL32      -0.1245
     54  CA        15.0020   17.4140   26.6940 C.3    32  VAL32       0.1561
     55  C         16.1170   17.8850   27.6370 C.2    32  VAL32       0.2260
     56  O         16.5330   19.0470   27.5320 O.2    32  VAL32      -0.2867
     57  CB        15.5660   17.3050   25.2550 C.3    32  VAL32       0.0252
     58  CG1       16.5530   16.1660   25.1730 C.3    32  VAL32       0.0019
     59  CG2       14.4360   17.1220   24.2630 C.3    32  VAL32       0.0019
     60  N         12.0020    6.7840   22.7960 N.3    45  LYS45      -0.1231
     61  CA        11.5160    7.8180   21.9200 C.3    45  LYS45       0.1693
     62  C         12.6600    8.2670   21.0250 C.2    45  LYS45       0.2592
     63  O         13.8150    8.3390   21.4330 O.2    45  LYS45      -0.2718
     64  CB        10.9450    8.9680   22.7460 C.3    45  LYS45       0.0285
     65  CG        10.2580   10.0160   21.8770 C.3    45  LYS45       0.0035
     66  CD         9.2810   10.8830   22.6040 C.3    45  LYS45       0.0206
     67  CE         8.7720   12.0070   21.7280 C.3    45  LYS45       0.1093
     68  NZ         7.4700   11.7260   21.0950 N.3    45  LYS45      -0.1314
     69  N         12.3230    8.5680   19.7970 N.am   46  MET46      -0.1965
     70  CA        13.2190    9.1470   18.8390 C.3    46  MET46       0.1736
     71  C         12.8130   10.5880   18.6190 C.2    46  MET46       0.2616
     72  O         11.6120   10.8120   18.4200 O.2    46  MET46      -0.2715
     73  CB        13.2030    8.3750   17.5090 C.3    46  MET46       0.0427
     74  CG        13.8050    6.9820   17.6230 C.3    46  MET46       0.0599
     75  SD        14.8050    6.4500   16.2220 S.3    46  MET46      -0.1393
     76  CE        16.0520    7.7340   16.1950 C.3    46  MET46       0.0692
     77  N         13.7720   11.4790   18.6580 N.am   47  ILE47      -0.1963
     78  CA        13.4580   12.8880   18.3770 C.3    47  ILE47       0.1727
     79  C         14.4220   13.3770   17.2970 C.2    47  ILE47       0.2617
     80  O         15.5400   12.9180   17.1570 O.2    47  ILE47      -0.2715
     81  CB        13.5190   13.7510   19.6390 C.3    47  ILE47       0.0290
     82  CG1       14.8810   13.7330   20.3030 C.3    47  ILE47       0.0022
     83  CG2       12.4100   13.3320   20.6020 C.3    47  ILE47       0.0023
     84  CD1       15.0430   14.7480   21.4100 C.3    47  ILE47       0.0001
     85  N         13.9150   14.3460   16.5350 N.am   48  GLY48      -0.1940
     86  CA        14.5810   14.9160   15.3930 C.3    48  GLY48       0.2014
     87  C         14.9240   16.3660   15.6450 C.2    48  GLY48       0.2639
     88  O         14.1270   17.0980   16.2050 O.2    48  GLY48      -0.2714
     89  N         16.1130   16.7330   15.2170 N.am   49  GLY49      -0.1939
     90  CA        16.5260   18.1340   15.2620 C.3    49  GLY49       0.2014
     91  C         17.2300   18.4730   13.9600 C.2    49  GLY49       0.2638
     92  O         17.1360   17.7440   12.9630 O.2    49  GLY49      -0.2714
     93  N         17.9300   19.5860   13.9900 N.am   50  ILE50      -0.1977
     94  CA        18.5590   20.1280   12.8080 C.3    50  ILE50       0.1596
     95  C         19.4980   19.1290   12.2000 C.2    50  ILE50       0.2287
     96  O         19.6380   19.0680   10.9790 O.2    50  ILE50      -0.2864
     97  CB        19.2960   21.4380   13.2020 C.3    50  ILE50       0.0276
     98  CG1       19.6740   22.2880   12.0000 C.3    50  ILE50       0.0022
     99  CG2       20.4890   21.1170   14.0770 C.3    50  ILE50       0.0022
    100  CD1       18.4360   22.8170   11.2850 C.3    50  ILE50       0.0001
    101  N         18.1440   12.5210   13.7300 N.3    53  PHE53      -0.1241
    102  CA        17.4210   11.8780   14.7900 C.3    53  PHE53       0.1605
    103  C         18.3340   11.2700   15.8370 C.2    53  PHE53       0.2264
    104  O         19.4150   10.8030   15.5100 O.2    53  PHE53      -0.2867
    105  CB        16.5400   10.7750   14.1810 C.3    53  PHE53       0.0534
    106  CG        15.1900   11.3120   13.7140 C.ar   53  PHE53      -0.0203
    107  CD1       15.0760   11.9410   12.4870 C.ar   53  PHE53      -0.0042
    108  CD2       14.0600   11.1820   14.5040 C.ar   53  PHE53      -0.0042
    109  CE1       13.8600   12.4280   12.0610 C.ar   53  PHE53      -0.0003
    110  CE2       12.8350   11.6690   14.0800 C.ar   53  PHE53      -0.0003
    111  CZ        12.7360   12.2970   12.8490 C.ar   53  PHE53      -0.0000
    112  N         22.6600   19.3110   23.1450 N.3    81  PRO81      -0.2102
    113  CA        23.7330   20.2780   23.3440 C.3    81  PRO81       0.1504
    114  C         23.4250   21.2110   24.5160 C.2    81  PRO81       0.2575
    115  O         24.3640   21.6920   25.1190 O.2    81  PRO81      -0.2718
    116  CB        23.7610   21.0980   22.0560 C.3    81  PRO81       0.0282
    117  CG        22.5210   20.7980   21.3200 C.3    81  PRO81       0.0208
    118  CD        21.9540   19.5150   21.8680 C.3    81  PRO81       0.0893
    119  N         22.1760   21.4630   24.8350 N.am   82  VAL82      -0.1980
    120  CA        21.6890   22.3170   25.9010 C.3    82  VAL82       0.1595
    121  C         20.3680   21.7610   26.4520 C.2    82  VAL82       0.2287
    122  O         19.5820   21.1590   25.6970 O.2    82  VAL82      -0.2864
    123  CB        21.4580   23.7740   25.4670 C.3    82  VAL82       0.0276
    124  CG1       22.7760   24.4790   25.2140 C.3    82  VAL82       0.0022
    125  CG2       20.5710   23.7920   24.2310 C.3    82  VAL82       0.0022
    126  N         16.6680   21.8710   27.2080 N.3    84  ILE84      -0.1245
    127  CA        15.6230   22.6030   26.5290 C.3    84  ILE84       0.1561
    128  C         14.2570   22.3470   27.1710 C.2    84  ILE84       0.2260
    129  O         13.8860   21.1980   27.4020 O.2    84  ILE84      -0.2867
    130  CB        15.5520   22.1910   25.0700 C.3    84  ILE84       0.0252
    131  CG1       16.7160   22.6350   24.1510 C.3    84  ILE84       0.0019
    132  CG2       14.2520   22.6880   24.4340 C.3    84  ILE84       0.0019
    133  CD1       16.9680   21.5380   23.1060 C.3    84  ILE84       0.0001
@<TRIPOS>BOND
     1    96    95    2
     2   100    98    1
     3    98    97    1
     4   109   107   ar
     5   109   111   ar
     6    95    94    1
     7   107   106   ar
     8    94    97    1
     9    94    93    1
    10   111   110   ar
    11    92    91    2
    12    97    99    1
    13   106   105    1
    14   106   108   ar
    15   101   102    1
    16    91    93   am
    17    91    90    1
    18   110   108   ar
    19   105   102    1
    20   102   103    1
    21    89    90    1
    22    89    87   am
    23    86    87    1
    24    86    85    1
    25   104   103    2
    26    87    88    2
    27    76    75    1
    28    75    74    1
    29    85    79   am
    30    80    79    2
    31    79    78    1
    32    73    74    1
    33    73    70    1
    34    44    42   ar
    35    31    30    2
    36    43    42   ar
    37    78    77    1
    38    78    81    1
    39    72    71    2
    40    29    30    1
    41    29    28    1
    42    71    77   am
    43    71    70    1
    44    42    41    1
    45    70    69    1
    46    30    32   am
    47    81    82    1
    48    81    83    1
    49    69    62   am
    50    32    33    1
    51    41    38    1
    52    82    84    1
    53    37    38    1
    54    37    34   am
    55    33    34    1
    56    33    36    1
    57    26    25   ar
    58    38    39    1
    59    62    63    2
    60    62    61    1
    61    34    35    2
    62    68    67    1
    63   117   118    1
    64   117   116    1
    65    27    25   ar
    66    11     9    1
    67    52    50   ar
    68    25    24    1
    69    67    66    1
    70   118   112    1
    71    65    66    1
    72    65    64    1
    73    61    64    1
    74    61    60    1
    75   116   113    1
    76    39    45   am
    77    39    40    2
    78    50    51   ar
    79    50    49    1
    80     9     8    2
    81     9    10    1
    82    22    23    2
    83    22    21    1
    84     8     7    1
    85    45    46    1
    86   133   131    1
    87    24    21    1
    88   112   113    1
    89   113   114    1
    90    21    20    1
    91    49    46    1
    92    19    17    1
    93     6     7    1
    94     6     5    1
    95    46    47    1
    96   131   130    1
    97    48    47    2
    98   125   123    1
    99    59    57    1
   100   132   130    1
   101   114   119   am
   102   114   115    2
   103     1     2    1
   104     2     5    1
   105     2     3    1
   106   119   120    1
   107    17    18    1
   108    17    16    1
   109   130   127    1
   110    58    57    1
   111   124   123    1
   112    57    54    1
   113   123   120    1
   114   122   121    2
   115   120   121    1
   116     3     4    2
   117    16    13    1
   118   127   128    1
   119   127   126    1
   120    54    53    1
   121    54    55    1
   122    15    14    2
   123    14    13    1
   124   128   129    2
   125    13    12    1
   126    56    55    2
