@<TRIPOS>MOLECULE
tmp/3b86B00.pdb
 140 138 0 0 0
SMALL
GASTEIGER

@<TRIPOS>ATOM
      1  N         21.9990   10.3190   -6.3640 N.3     1  MET1       -0.1245
      2  CA        23.3830    9.8410   -6.6590 C.3     1  MET1        0.1570
      3  C         24.0920    9.2690   -5.4360 C.2     1  MET1        0.2261
      4  O         23.7610    9.6170   -4.3060 O.2     1  MET1       -0.2867
      5  CB        24.2350   10.9680   -7.2410 C.3     1  MET1        0.0387
      6  CG        24.2400   12.2440   -6.4150 C.3     1  MET1        0.0595
      7  SD        25.8040   13.1190   -6.5360 S.3     1  MET1       -0.1393
      8  CE        26.1360   13.2450   -8.2960 C.3     1  MET1        0.0692
      9  N         29.2520   11.2680   -6.3340 N.3     6  PHE6       -0.1241
     10  CA        29.4540   12.6290   -5.8470 C.3     6  PHE6        0.1605
     11  C         30.9190   13.0500   -5.8480 C.2     6  PHE6        0.2264
     12  O         31.2510   14.1170   -6.3560 O.2     6  PHE6       -0.2867
     13  CB        28.8850   12.8350   -4.4390 C.3     6  PHE6        0.0534
     14  CG        29.1870   14.1970   -3.8630 C.ar    6  PHE6       -0.0203
     15  CD1       28.5510   15.3330   -4.3550 C.ar    6  PHE6       -0.0042
     16  CD2       30.1130   14.3430   -2.8350 C.ar    6  PHE6       -0.0042
     17  CE1       28.8260   16.5960   -3.8360 C.ar    6  PHE6       -0.0003
     18  CE2       30.3990   15.6060   -2.3080 C.ar    6  PHE6       -0.0003
     19  CZ        29.7520   16.7330   -2.8070 C.ar    6  PHE6       -0.0000
     20  N         31.9790   13.5540   -9.2400 N.3     9  SER9       -0.1202
     21  CA        31.3310   14.7440   -9.7940 C.3     9  SER9        0.2020
     22  C         32.1660   15.9920   -9.5470 C.2     9  SER9        0.2618
     23  O         32.2370   16.8460  -10.4300 O.2     9  SER9       -0.2717
     24  CB        29.9100   14.9700   -9.2610 C.3     9  SER9        0.2103
     25  OG        29.8710   15.4760   -7.9320 O.3     9  SER9       -0.2182
     26  N         32.7890   16.0820   -8.3700 N.am   10  LEU10      -0.1979
     27  CA        33.6520   17.2030   -7.9770 C.3    10  LEU10       0.1596
     28  C         34.7240   17.5370   -9.0170 C.2    10  LEU10       0.2287
     29  O         34.9270   18.7130   -9.3420 O.2    10  LEU10      -0.2864
     30  CB        34.2740   16.9650   -6.5950 C.3    10  LEU10       0.0297
     31  CG        33.3740   16.7810   -5.3630 C.3    10  LEU10       0.0022
     32  CD1       34.2030   16.4600   -4.1190 C.3    10  LEU10       0.0001
     33  CD2       32.4520   17.9660   -5.0740 C.3    10  LEU10       0.0001
     34  N         34.6460   16.5680  -12.2390 N.3    12  MET12      -0.1230
     35  CA        33.9530   16.8950  -13.4850 C.3    12  MET12       0.1702
     36  C         33.5250   18.3550  -13.4680 C.2    12  MET12       0.2592
     37  O         33.7280   19.0460  -14.4570 O.2    12  MET12      -0.2718
     38  CB        32.7790   15.9510  -13.7790 C.3    12  MET12       0.0401
     39  CG        33.1900   14.5320  -14.1990 C.3    12  MET12       0.0596
     40  SD        31.8980   13.4540  -14.8740 S.3    12  MET12      -0.1393
     41  CE        30.8460   13.2450  -13.4440 C.3    12  MET12       0.0692
     42  N         32.9580   18.8110  -12.3510 N.am   13  ILE13      -0.1980
     43  CA        32.5180   20.1980  -12.1650 C.3    13  ILE13       0.1595
     44  C         33.7140   21.1410  -12.3080 C.2    13  ILE13       0.2287
     45  O         33.6480   22.1140  -13.0610 O.2    13  ILE13      -0.2864
     46  CB        31.8020   20.3970  -10.8090 C.3    13  ILE13       0.0276
     47  CG1       30.5640   19.5050  -10.7210 C.3    13  ILE13       0.0022
     48  CG2       31.4240   21.8760  -10.5990 C.3    13  ILE13       0.0022
     49  CD1       30.1240   19.2060   -9.2900 C.3    13  ILE13       0.0001
     50  N         31.2750   27.5980  -10.5670 N.3    51  VAL51      -0.1231
     51  CA        30.8480   26.3180  -10.0000 C.3    51  VAL51       0.1692
     52  C         29.3790   26.3810   -9.5800 C.2    51  VAL51       0.2592
     53  O         28.5970   25.4750   -9.8780 O.2    51  VAL51      -0.2718
     54  CB        31.7650   25.8750   -8.8240 C.3    51  VAL51       0.0266
     55  CG1       31.1420   24.7440   -8.0170 C.3    51  VAL51       0.0020
     56  CG2       33.1410   25.4490   -9.3370 C.3    51  VAL51       0.0020
     57  N         29.0160   27.4680   -8.9040 N.am   52  SER52      -0.1952
     58  CA        27.6640   27.6760   -8.4010 C.3    52  SER52       0.1924
     59  C         26.6320   27.8950   -9.5040 C.2    52  SER52       0.2314
     60  O         25.4670   27.5160   -9.3410 O.2    52  SER52      -0.2863
     61  CB        27.6620   28.8550   -7.4330 C.3    52  SER52       0.2116
     62  OG        28.5230   28.5790   -6.3460 O.3    52  SER52      -0.2180
     63  N         26.8100   26.4640  -12.4160 N.3    54  MET54      -0.1230
     64  CA        26.6160   25.1170  -12.9390 C.3    54  MET54       0.1702
     65  C         25.5700   24.3740  -12.1000 C.2    54  MET54       0.2592
     66  O         24.7350   23.6560  -12.6490 O.2    54  MET54      -0.2718
     67  CB        27.9560   24.3850  -12.9950 C.3    54  MET54       0.0401
     68  CG        27.9410   23.1060  -13.8150 C.3    54  MET54       0.0596
     69  SD        29.5120   22.2190  -13.8600 S.3    54  MET54      -0.1393
     70  CE        30.5740   23.3240  -14.7950 C.3    54  MET54       0.0692
     71  N         25.6110   24.5630  -10.7830 N.am   55  ALA55      -0.1980
     72  CA        24.6400   23.9960   -9.8440 C.3    55  ALA55       0.1597
     73  C         23.2440   24.6130   -9.9580 C.2    55  ALA55       0.2287
     74  O         22.2540   23.9770   -9.5860 O.2    55  ALA55      -0.2864
     75  CB        25.1400   24.1580   -8.4180 C.3    55  ALA55       0.0319
     76  N         19.9040   16.3360   -6.7270 N.3    75  HIS75      -0.1226
     77  CA        20.6500   16.1820   -7.9760 C.3    75  HIS75       0.1752
     78  C         22.0950   16.6650   -7.8460 C.2    75  HIS75       0.2596
     79  O         22.8690   16.5910   -8.8080 O.2    75  HIS75      -0.2718
     80  CB        19.9390   16.9450   -9.1000 C.3    75  HIS75       0.0759
     81  CG        18.5030   16.5590   -9.2760 C.ar   75  HIS75       0.0818
     82  ND1       17.4820   17.1490   -8.5610 N.ar   75  HIS75      -0.2268
     83  CD2       17.9170   15.6410  -10.0800 C.ar   75  HIS75       0.1154
     84  CE1       16.3290   16.6120   -8.9170 C.ar   75  HIS75       0.1986
     85  NE2       16.5660   15.6950   -9.8370 N.ar   75  HIS75      -0.2212
     86  N         22.4450   17.1520   -6.6570 N.am   76  LEU76      -0.1966
     87  CA        23.7670   17.7090   -6.3760 C.3    76  LEU76       0.1728
     88  C         24.5550   16.9210   -5.3310 C.2    76  LEU76       0.2616
     89  O         25.7470   16.6790   -5.5250 O.2    76  LEU76      -0.2715
     90  CB        23.6570   19.1730   -5.9340 C.3    76  LEU76       0.0311
     91  CG        22.9420   20.2340   -6.7810 C.3    76  LEU76       0.0022
     92  CD1       22.8210   21.5470   -6.0090 C.3    76  LEU76       0.0001
     93  CD2       23.6150   20.4550   -8.1320 C.3    76  LEU76       0.0001
     94  N         23.8920   16.5280   -4.2430 N.am   77  VAL77      -0.1977
     95  CA        24.5440   15.8360   -3.1280 C.3    77  VAL77       0.1596
     96  C         23.9600   14.4430   -2.8600 C.2    77  VAL77       0.2287
     97  O         22.7700   14.2160   -3.0940 O.2    77  VAL77      -0.2864
     98  CB        24.6040   16.6980   -1.8270 C.3    77  VAL77       0.0276
     99  CG1       25.2770   18.0500   -2.0680 C.3    77  VAL77       0.0022
    100  CG2       23.2370   16.9150   -1.1820 C.3    77  VAL77       0.0022
    101  N         33.0050   19.3560    4.5880 N.3   121  PHE121     -0.1227
    102  CA        32.5130   20.0770    3.4190 C.3   121  PHE121      0.1736
    103  C         33.5230   19.9550    2.2860 C.2   121  PHE121      0.2595
    104  O         34.7260   20.0610    2.5180 O.2   121  PHE121     -0.2718
    105  CB        32.2460   21.5470    3.7520 C.3   121  PHE121      0.0547
    106  CG        31.5840   22.3170    2.6390 C.ar  121  PHE121     -0.0202
    107  CD1       32.3180   23.2060    1.8590 C.ar  121  PHE121     -0.0042
    108  CD2       30.2300   22.1480    2.3660 C.ar  121  PHE121     -0.0042
    109  CE1       31.7170   23.9280    0.8320 C.ar  121  PHE121     -0.0003
    110  CE2       29.6160   22.8570    1.3370 C.ar  121  PHE121     -0.0003
    111  CZ        30.3610   23.7490    0.5680 C.ar  121  PHE121     -0.0000
    112  N         33.0160   19.7390    1.0750 N.am  122  MET122     -0.1965
    113  CA        33.8440   19.5720   -0.1160 C.3   122  MET122      0.1736
    114  C         33.3920   20.5070   -1.2370 C.2   122  MET122      0.2616
    115  O         32.2020   20.6140   -1.5240 O.2   122  MET122     -0.2715
    116  CB        33.8250   18.1140   -0.5860 C.3   122  MET122      0.0427
    117  CG        34.1270   17.0930    0.5100 C.3   122  MET122      0.0599
    118  SD        34.2200   15.3690   -0.0190 S.3   122  MET122     -0.1393
    119  CE        35.8240   15.3940   -0.8280 C.3   122  MET122      0.0692
    120  N         34.3450   21.1930   -1.8600 N.am  123  TRP123     -0.1960
    121  CA        34.0350   22.0790   -2.9710 C.3   123  TRP123      0.1756
    122  C         34.6910   21.5150   -4.2260 C.2   123  TRP123      0.2461
    123  O         35.8510   21.0980   -4.1560 O.2   123  TRP123     -0.2730
    124  CB        34.5090   23.5040   -2.6820 C.3   123  TRP123      0.0590
    125  CG        34.0140   24.5210   -3.6650 C.ar  123  TRP123      0.0006
    126  CD1       34.6970   25.0420   -4.7230 C.ar  123  TRP123      0.0946
    127  CD2       32.7190   25.1370   -3.6800 C.ar  123  TRP123      0.0152
    128  NE1       33.9090   25.9450   -5.4000 N.ar  123  TRP123     -0.2442
    129  CE2       32.6880   26.0190   -4.7800 C.ar  123  TRP123      0.0810
    130  CE3       31.5770   25.0180   -2.8750 C.ar  123  TRP123      0.0012
    131  CZ2       31.5630   26.7930   -5.0930 C.ar  123  TRP123      0.0191
    132  CZ3       30.4580   25.7860   -3.1870 C.ar  123  TRP123      0.0001
    133  CH2       30.4600   26.6620   -4.2900 C.ar  123  TRP123      0.0015
    134  N         33.9670   21.4750   -5.3610 N.am  124  PRO124     -0.2727
    135  CA        34.5390   20.9990   -6.6200 C.3   124  PRO124      0.1402
    136  C         35.8730   21.6490   -6.9670 C.2   124  PRO124      0.2269
    137  O         36.8160   20.9670   -7.3770 O.2   124  PRO124     -0.2865
    138  CB        33.4870   21.4110   -7.6440 C.3   124  PRO124      0.0296
    139  CG        32.2220   21.3400   -6.8970 C.3   124  PRO124      0.0237
    140  CD        32.5510   21.8480   -5.5330 C.3   124  PRO124      0.0939
@<TRIPOS>BOND
     1    40    39    1
     2    40    41    1
     3    70    69    1
     4    37    36    2
     5    39    38    1
     6    69    68    1
     7    68    67    1
     8    38    35    1
     9    35    36    1
    10    35    34    1
    11    36    42   am
    12    45    44    2
    13    67    64    1
    14    64    63    1
    15    64    65    1
    16    66    65    2
    17    42    43    1
    18    44    43    1
    19    43    46    1
    20    65    71   am
    21    46    47    1
    22    46    48    1
    23    71    72    1
    24    47    49    1
    25    50    51    1
    26    23    22    2
    27    83    85   ar
    28    83    81   ar
    29    51    52    1
    30    51    54    1
    31    73    72    1
    32    73    74    2
    33    53    52    2
    34    72    75    1
    35    85    84   ar
    36    21    22    1
    37    21    24    1
    38    21    20    1
    39    52    57   am
    40    22    26   am
    41    59    60    2
    42    59    58    1
    43    29    28    2
    44    56    54    1
    45    81    80    1
    46    81    82   ar
    47    24    25    1
    48    80    77    1
    49    28    27    1
    50    84    82   ar
    51    57    58    1
    52    54    55    1
    53    79    78    2
    54    58    61    1
    55    26    27    1
    56     8     7    1
    57    93    91    1
    58    27    30    1
    59    77    78    1
    60    77    76    1
    61    78    86   am
    62   138   139    1
    63   138   135    1
    64    61    62    1
    65   137   136    2
    66     5     2    1
    67     5     6    1
    68   136   135    1
    69   139   140    1
    70    91    92    1
    71    91    90    1
    72     2     1    1
    73     2     3    1
    74    86    87    1
    75   135   134    1
    76    30    31    1
    77     7     6    1
    78    87    90    1
    79    87    88    1
    80    12    11    2
    81     9    10    1
    82    11    10    1
    83    10    13    1
    84   140   134    1
    85    89    88    2
    86     3     4    2
    87   128   129   ar
    88   128   126   ar
    89    31    33    1
    90    31    32    1
    91   134   122   am
    92    88    94   am
    93   131   129   ar
    94   131   133   ar
    95   129   127   ar
    96   126   125   ar
    97    13    14    1
    98    15    14   ar
    99    15    17   ar
   100   133   132   ar
   101    94    95    1
   102   122   123    2
   103   122   121    1
   104    14    16   ar
   105    17    19   ar
   106   127   125   ar
   107   127   130   ar
   108   125   124    1
   109   132   130   ar
   110    95    96    1
   111    95    98    1
   112    97    96    2
   113   121   124    1
   114   121   120    1
   115    16    18   ar
   116    19    18   ar
   117    99    98    1
   118   120   114   am
   119    98   100    1
   120   115   114    2
   121   114   113    1
   122   119   118    1
   123   116   113    1
   124   116   117    1
   125   113   112    1
   126   118   117    1
   127   111   109   ar
   128   111   110   ar
   129   109   107   ar
   130   112   103   am
   131   110   108   ar
   132   107   106   ar
   133   103   104    2
   134   103   102    1
   135   108   106   ar
   136   106   105    1
   137   102   105    1
   138   102   101    1
