@<TRIPOS>MOLECULE
tmp/3b86A00.pdb
 113 111 0 0 0
SMALL
GASTEIGER

@<TRIPOS>ATOM
      1  N         34.6510    5.9030    6.3570 N.3     6  PHE6       -0.1241
      2  CA        36.0180    6.0690    5.8810 C.3     6  PHE6        0.1605
      3  C         36.4690    7.5240    5.8930 C.2     6  PHE6        0.2264
      4  O         37.5420    7.8230    6.4160 O.2     6  PHE6       -0.2867
      5  CB        36.2280    5.4720    4.4870 C.3     6  PHE6        0.0534
      6  CG        37.5970    5.7560    3.9190 C.ar    6  PHE6       -0.0203
      7  CD1       38.7240    5.1240    4.4370 C.ar    6  PHE6       -0.0042
      8  CD2       37.7610    6.6610    2.8740 C.ar    6  PHE6       -0.0042
      9  CE1       39.9980    5.3820    3.9270 C.ar    6  PHE6       -0.0003
     10  CE2       39.0320    6.9310    2.3540 C.ar    6  PHE6       -0.0003
     11  CZ        40.1500    6.2870    2.8800 C.ar    6  PHE6       -0.0000
     12  N         36.9180    8.6570    9.2780 N.3     9  SER9       -0.1202
     13  CA        38.1020    8.0030    9.8500 C.3     9  SER9        0.2020
     14  C         39.3800    8.7890    9.5890 C.2     9  SER9        0.2618
     15  O         40.2760    8.7740   10.4260 O.2     9  SER9       -0.2717
     16  CB        38.3030    6.5670    9.3490 C.3     9  SER9        0.2103
     17  OG        38.7380    6.5020    7.9990 O.3     9  SER9       -0.2182
     18  N         39.4440    9.4630    8.4400 N.am   10  LEU10      -0.1979
     19  CA        40.5830   10.2910    8.0200 C.3    10  LEU10       0.1596
     20  C         40.9570   11.3440    9.0640 C.2    10  LEU10       0.2287
     21  O         42.1390   11.4970    9.3790 O.2    10  LEU10      -0.2864
     22  CB        40.3370   10.9130    6.6340 C.3    10  LEU10       0.0297
     23  CG        40.1240    9.9730    5.4340 C.3    10  LEU10       0.0022
     24  CD1       39.9410   10.7300    4.1190 C.3    10  LEU10       0.0001
     25  CD2       41.2560    8.9540    5.2800 C.3    10  LEU10       0.0001
     26  N         42.2090    9.5340   12.4200 N.3    13  ILE13      -0.1245
     27  CA        43.6010    9.1140   12.2240 C.3    13  ILE13       0.1561
     28  C         44.5400   10.3230   12.3440 C.2    13  ILE13       0.2260
     29  O         45.5500   10.2610   13.0480 O.2    13  ILE13      -0.2867
     30  CB        43.7830    8.3800   10.8730 C.3    13  ILE13       0.0252
     31  CG1       42.9610    7.0890   10.8410 C.3    13  ILE13       0.0019
     32  CG2       45.2630    8.0510   10.6110 C.3    13  ILE13       0.0019
     33  CD1       42.6130    6.6230    9.4360 C.3    13  ILE13       0.0001
     34  N         51.0040    7.7910   10.5380 N.3    51  VAL51      -0.1231
     35  CA        49.7270    7.3560    9.9740 C.3    51  VAL51       0.1692
     36  C         49.7770    5.8750    9.5890 C.2    51  VAL51       0.2592
     37  O         48.8850    5.1000    9.9430 O.2    51  VAL51      -0.2718
     38  CB        49.3160    8.2680    8.7890 C.3    51  VAL51       0.0266
     39  CG1       48.1660    7.6700    7.9800 C.3    51  VAL51       0.0020
     40  CG2       48.9380    9.6560    9.3060 C.3    51  VAL51       0.0020
     41  N         50.8370    5.5020    8.8800 N.am   52  SER52      -0.1952
     42  CA        51.0460    4.1480    8.3770 C.3    52  SER52       0.1924
     43  C         51.2690    3.1160    9.4770 C.2    52  SER52       0.2314
     44  O         50.8730    1.9550    9.3230 O.2    52  SER52      -0.2863
     45  CB        52.2260    4.1490    7.4110 C.3    52  SER52       0.2116
     46  OG        52.0060    5.0820    6.3690 O.3    52  SER52      -0.2180
     47  N         49.9160    3.3930   12.4680 N.3    54  MET54      -0.1230
     48  CA        48.5670    3.2420   13.0010 C.3    54  MET54       0.1702
     49  C         47.7780    2.2420   12.1500 C.2    54  MET54       0.2592
     50  O         47.0100    1.4460   12.6890 O.2    54  MET54      -0.2718
     51  CB        47.8860    4.6080   13.0940 C.3    54  MET54       0.0401
     52  CG        46.5640    4.6260   13.8540 C.3    54  MET54       0.0596
     53  SD        45.8240    6.2710   13.9810 S.3    54  MET54      -0.1393
     54  CE        46.9340    7.1220   15.1020 C.3    54  MET54       0.0692
     55  N         47.9900    2.2850   10.8360 N.am   55  ALA55      -0.1980
     56  CA        47.3900    1.3560    9.8760 C.3    55  ALA55       0.1597
     57  C         48.0000   -0.0500    9.9410 C.2    55  ALA55       0.2287
     58  O         47.3500   -1.0340    9.5730 O.2    55  ALA55      -0.2864
     59  CB        47.5110    1.9140    8.4590 C.3    55  ALA55       0.0319
     60  N         39.7300   -3.3560    6.8670 N.3    75  HIS75      -0.1226
     61  CA        39.6450   -2.6090    8.1220 C.3    75  HIS75       0.1752
     62  C         40.1040   -1.1600    7.9360 C.2    75  HIS75       0.2596
     63  O         40.0040   -0.3490    8.8620 O.2    75  HIS75      -0.2718
     64  CB        40.4990   -3.2910    9.1980 C.3    75  HIS75       0.0759
     65  CG        40.3230   -4.7770    9.2530 C.ar   75  HIS75       0.0818
     66  ND1       39.3010   -5.3810    9.9540 N.ar   75  HIS75      -0.2268
     67  CD2       41.0320   -5.7790    8.6810 C.ar   75  HIS75       0.1154
     68  CE1       39.3920   -6.6920    9.8150 C.ar   75  HIS75       0.1986
     69  NE2       40.4330   -6.9600    9.0470 N.ar   75  HIS75      -0.2212
     70  N         40.6010   -0.8490    6.7400 N.am   76  LEU76      -0.1966
     71  CA        41.1540    0.4660    6.4280 C.3    76  LEU76       0.1728
     72  C         40.3510    1.2380    5.3840 C.2    76  LEU76       0.2616
     73  O         40.0400    2.4130    5.5950 O.2    76  LEU76      -0.2715
     74  CB        42.6150    0.3370    5.9770 C.3    76  LEU76       0.0311
     75  CG        43.6010   -0.5400    6.7620 C.3    76  LEU76       0.0022
     76  CD1       44.9710   -0.5470    6.0900 C.3    76  LEU76       0.0001
     77  CD2       43.7340   -0.1770    8.2450 C.3    76  LEU76       0.0001
     78  N         40.0180    0.5710    4.2790 N.am   77  VAL77      -0.1977
     79  CA        39.3230    1.1900    3.1470 C.3    77  VAL77       0.1596
     80  C         37.9370    0.5890    2.8820 C.2    77  VAL77       0.2287
     81  O         37.7320   -0.5970    3.1530 O.2    77  VAL77      -0.2864
     82  CB        40.1920    1.2050    1.8540 C.3    77  VAL77       0.0276
     83  CG1       41.5010    1.9550    2.0860 C.3    77  VAL77       0.0022
     84  CG2       40.4620   -0.1910    1.2910 C.3    77  VAL77       0.0022
     85  N         43.1840    9.5970   -1.0280 N.3   122  MET122     -0.1230
     86  CA        42.9920   10.4110    0.1710 C.3   122  MET122      0.1702
     87  C         43.9110    9.9700    1.3100 C.2   122  MET122      0.2592
     88  O         43.9730    8.7880    1.6360 O.2   122  MET122     -0.2718
     89  CB        41.5250   10.3800    0.6090 C.3   122  MET122      0.0401
     90  CG        40.5400   10.7800   -0.4810 C.3   122  MET122      0.0596
     91  SD        38.8320   10.7380    0.0730 S.3   122  MET122     -0.1393
     92  CE        37.9560   10.7090   -1.4900 C.3   122  MET122      0.0692
     93  N         44.6310   10.9180    1.9000 N.am  123  TRP123     -0.1963
     94  CA        45.5320   10.6290    3.0070 C.3   123  TRP123      0.1756
     95  C         44.9880   11.2950    4.2680 C.2   123  TRP123      0.2461
     96  O         44.5610   12.4460    4.1980 O.2   123  TRP123     -0.2730
     97  CB        46.9580   11.1030    2.7060 C.3   123  TRP123      0.0590
     98  CG        47.9580   10.5830    3.6980 C.ar  123  TRP123      0.0006
     99  CD1       48.4600   11.2420    4.7790 C.ar  123  TRP123      0.0946
    100  CD2       48.5570    9.2800    3.7100 C.ar  123  TRP123      0.0152
    101  NE1       49.3390   10.4370    5.4650 N.ar  123  TRP123     -0.2442
    102  CE2       49.4120    9.2240    4.8320 C.ar  123  TRP123      0.0810
    103  CE3       48.4460    8.1530    2.8850 C.ar  123  TRP123      0.0012
    104  CZ2       50.1680    8.0900    5.1450 C.ar  123  TRP123      0.0191
    105  CZ3       49.1950    7.0230    3.1980 C.ar  123  TRP123      0.0001
    106  CH2       50.0470    7.0030    4.3210 C.ar  123  TRP123      0.0015
    107  N         44.9770   10.5860    5.4120 N.am  124  PRO124     -0.2727
    108  CA        44.4940   11.2010    6.6510 C.3   124  PRO124      0.1402
    109  C         45.1710   12.5150    6.9970 C.2   124  PRO124      0.2269
    110  O         44.4950   13.4570    7.4200 O.2   124  PRO124     -0.2865
    111  CB        44.8410   10.1590    7.7090 C.3   124  PRO124      0.0296
    112  CG        44.7670    8.8810    6.9780 C.3   124  PRO124      0.0237
    113  CD        45.3640    9.1800    5.6350 C.3   124  PRO124      0.0939
@<TRIPOS>BOND
     1    92    91    1
     2    85    86    1
     3    90    91    1
     4    90    89    1
     5    86    89    1
     6    86    87    1
     7    84    82    1
     8    87    88    2
     9    87    93   am
    10    82    83    1
    11    82    79    1
    12    93    94    1
    13    10     8   ar
    14    10    11   ar
    15    97    94    1
    16    97    98    1
    17     8     6   ar
    18    11     9   ar
    19    80    79    1
    20    80    81    2
    21   103   105   ar
    22   103   100   ar
    23    94    95    1
    24    79    78    1
    25   105   106   ar
    26    98   100   ar
    27    98    99   ar
    28   100   102   ar
    29     6     7   ar
    30     6     5    1
    31     9     7   ar
    32    24    23    1
    33    96    95    2
    34    95   107   am
    35    78    72   am
    36   106   104   ar
    37     5     2    1
    38    99   101   ar
    39   102   104   ar
    40   102   101   ar
    41    25    23    1
    42    72    73    2
    43    72    71    1
    44   107   113    1
    45   107   108    1
    46    23    22    1
    47   113   112    1
    48     2     3    1
    49     2     1    1
    50     3     4    2
    51    74    71    1
    52    74    75    1
    53    76    75    1
    54    46    45    1
    55    71    70    1
    56    22    19    1
    57   108   109    1
    58   108   111    1
    59    70    62   am
    60    75    77    1
    61    60    61    1
    62   112   111    1
    63   109   110    2
    64    45    42    1
    65    62    61    1
    66    62    63    2
    67    39    38    1
    68    17    16    1
    69    19    18    1
    70    19    20    1
    71    61    64    1
    72    42    41    1
    73    42    43    1
    74    18    14   am
    75    59    56    1
    76    67    69   ar
    77    67    65   ar
    78    38    40    1
    79    38    35    1
    80    41    36   am
    81    69    68   ar
    82    20    21    2
    83    64    65    1
    84    65    66   ar
    85    12    13    1
    86    44    43    2
    87    16    13    1
    88    33    31    1
    89    58    57    2
    90    14    13    1
    91    14    15    2
    92    36    37    2
    93    36    35    1
    94    68    66   ar
    95    56    57    1
    96    56    55    1
    97    35    34    1
    98    32    30    1
    99    55    49   am
   100    31    30    1
   101    30    27    1
   102    49    50    2
   103    49    48    1
   104    27    28    1
   105    27    26    1
   106    28    29    2
   107    47    48    1
   108    48    51    1
   109    51    52    1
   110    52    53    1
   111    53    54    1
