@<TRIPOS>MOLECULE
tmp/3b87A00.pdb
 166 159 0 0 0
SMALL
GASTEIGER

@<TRIPOS>ATOM
      1  N          6.6810   13.2310  -21.3200 N.3     6  PHE6       -0.1241
      2  CA         6.4960   11.8600  -20.8680 C.3     6  PHE6        0.1605
      3  C          5.0170   11.4900  -20.7250 C.2     6  PHE6        0.2264
      4  O          4.5840   10.4560  -21.2360 O.2     6  PHE6       -0.2867
      5  CB         7.2440   11.5770  -19.5590 C.3     6  PHE6        0.0534
      6  CG         6.9690   10.2030  -19.0060 C.ar    6  PHE6       -0.0203
      7  CD1        7.5490    9.0770  -19.5910 C.ar    6  PHE6       -0.0042
      8  CD2        6.1120   10.0290  -17.9230 C.ar    6  PHE6       -0.0042
      9  CE1        7.2830    7.8060  -19.1090 C.ar    6  PHE6       -0.0003
     10  CE2        5.8410    8.7540  -17.4270 C.ar    6  PHE6       -0.0003
     11  CZ         6.4330    7.6390  -18.0210 C.ar    6  PHE6       -0.0000
     12  N          3.6170   11.0660  -24.0100 N.3     9  SER9       -0.1202
     13  CA         4.0940    9.8250  -24.6560 C.3     9  SER9        0.2020
     14  C          3.2790    8.5890  -24.2900 C.2     9  SER9        0.2618
     15  O          3.1360    7.6800  -25.1060 O.2     9  SER9       -0.2717
     16  CB         5.5740    9.5580  -24.3800 C.3     9  SER9        0.2103
     17  OG         5.7740    8.9590  -23.1140 O.3     9  SER9       -0.2182
     18  N          2.7470    8.5600  -23.0710 N.am   10  LEU10      -0.1979
     19  CA         1.9140    7.4410  -22.6200 C.3    10  LEU10       0.1596
     20  C          0.7110    7.2560  -23.5300 C.2    10  LEU10       0.2287
     21  O          0.3770    6.1330  -23.9270 O.2    10  LEU10      -0.2864
     22  CB         1.4460    7.6640  -21.1710 C.3    10  LEU10       0.0297
     23  CG         2.5330    7.8480  -20.1050 C.3    10  LEU10       0.0022
     24  CD1        1.9060    8.1150  -18.7170 C.3    10  LEU10       0.0001
     25  CD2        3.4580    6.6210  -20.0690 C.3    10  LEU10       0.0001
     26  N          0.4420    8.4330  -26.6540 N.3    12  MET12      -0.1230
     27  CA         0.9860    8.0910  -27.9780 C.3    12  MET12       0.1702
     28  C          1.2860    6.5940  -28.0830 C.2    12  MET12       0.2592
     29  O          1.0490    5.9760  -29.1180 O.2    12  MET12      -0.2718
     30  CB         2.2720    8.8810  -28.2660 C.3    12  MET12       0.0401
     31  CG         2.1180   10.4050  -28.3780 C.3    12  MET12       0.0596
     32  SD         3.5110   11.1420  -29.2970 S.3    12  MET12      -0.1393
     33  CE         4.7600   11.2510  -28.0420 C.3    12  MET12       0.0692
     34  N          1.8280    6.0180  -27.0150 N.am   13  ILE13      -0.1980
     35  CA         2.1830    4.5980  -27.0100 C.3    13  ILE13       0.1595
     36  C          0.9290    3.7340  -27.0240 C.2    13  ILE13       0.2287
     37  O          0.8340    2.8060  -27.8300 O.2    13  ILE13      -0.2864
     38  CB         3.1490    4.2480  -25.8390 C.3    13  ILE13       0.0276
     39  CG1        4.4950    4.9490  -26.0550 C.3    13  ILE13       0.0022
     40  CG2        3.3750    2.7390  -25.7360 C.3    13  ILE13       0.0022
     41  CD1        5.1880    5.3610  -24.7880 C.3    13  ILE13       0.0001
     42  N         -0.8160    3.6010  -30.3620 N.3    16  GLY16      -0.1225
     43  CA        -0.1960    2.6730  -31.3150 C.3    16  GLY16       0.1811
     44  C         -0.3890    1.1880  -31.0200 C.2    16  GLY16       0.2280
     45  O         -0.3990    0.3520  -31.9460 O.2    16  GLY16      -0.2866
     46  N         -4.4280   -3.1870  -31.7380 N.3    20  LYS20      -0.1245
     47  CA        -4.0580   -4.5670  -32.0900 C.3    20  LYS20       0.1561
     48  C         -4.7970   -5.6060  -31.2530 C.2    20  LYS20       0.2260
     49  O         -4.7550   -6.7940  -31.5630 O.2    20  LYS20      -0.2867
     50  CB        -2.5460   -4.7820  -31.9310 C.3    20  LYS20       0.0271
     51  CG        -1.6870   -3.8600  -32.7840 C.3    20  LYS20       0.0035
     52  CD        -0.2180   -4.1640  -32.6030 C.3    20  LYS20       0.0206
     53  CE         0.5930   -3.6030  -33.7620 C.3    20  LYS20       0.1093
     54  NZ         2.0490   -3.8900  -33.5810 N.3    20  LYS20      -0.1314
     55  N          3.8770   -2.9640  -25.6940 N.3    51  VAL51      -0.1231
     56  CA         4.4600   -1.7430  -25.1610 C.3    51  VAL51       0.1692
     57  C          5.9510   -1.9590  -24.8550 C.2    51  VAL51       0.2592
     58  O          6.7840   -1.1150  -25.1970 O.2    51  VAL51      -0.2718
     59  CB         3.6480   -1.2160  -23.9350 C.3    51  VAL51       0.0266
     60  CG1        4.4050   -0.1180  -23.1920 C.3    51  VAL51       0.0020
     61  CG2        2.2790   -0.7180  -24.3910 C.3    51  VAL51       0.0020
     62  N          6.2820   -3.1000  -24.2480 N.am   52  SER52      -0.1952
     63  CA         7.6550   -3.3760  -23.8120 C.3    52  SER52       0.1924
     64  C          8.5730   -3.6600  -24.9940 C.2    52  SER52       0.2314
     65  O          9.7510   -3.3220  -24.9500 O.2    52  SER52      -0.2863
     66  CB         7.7050   -4.5350  -22.8170 C.3    52  SER52       0.2116
     67  OG         6.9300   -4.2460  -21.6570 O.3    52  SER52      -0.2180
     68  N          8.2030   -2.0850  -27.7750 N.3    54  MET54      -0.1230
     69  CA         8.4330   -0.7140  -28.2510 C.3    54  MET54       0.1702
     70  C          9.6070   -0.0400  -27.5410 C.2    54  MET54       0.2592
     71  O         10.3460    0.7300  -28.1530 O.2    54  MET54      -0.2718
     72  CB         7.1530    0.1340  -28.1180 C.3    54  MET54       0.0401
     73  CG         7.1820    1.4310  -28.9340 C.3    54  MET54       0.0596
     74  SD         5.6120    2.3190  -29.0750 S.3    54  MET54      -0.1393
     75  CE         4.4980    1.0320  -29.6270 C.3    54  MET54       0.0692
     76  N          9.7750   -0.3510  -26.2560 N.am   55  ALA55      -0.1980
     77  CA        10.8780    0.1680  -25.4510 C.3    55  ALA55       0.1597
     78  C         12.1890   -0.5560  -25.7380 C.2    55  ALA55       0.2287
     79  O         13.2510   -0.0760  -25.3630 O.2    55  ALA55      -0.2864
     80  CB        10.5450    0.0640  -23.9720 C.3    55  ALA55       0.0319
     81  N         12.8150   -3.4670  -24.4590 N.3    57  ALA57      -0.1245
     82  CA        13.1600   -4.0560  -23.1710 C.3    57  ALA57       0.1562
     83  C         12.9540   -5.5640  -23.1000 C.2    57  ALA57       0.2260
     84  O         13.4540   -6.2050  -22.1750 O.2    57  ALA57      -0.2867
     85  CB        12.3910   -3.3690  -22.0520 C.3    57  ALA57       0.0290
     86  N         16.2790    3.7360  -20.6590 N.3    73  LEU73      -0.1245
     87  CA        15.6100    4.7100  -19.7800 C.3    73  LEU73       0.1561
     88  C         15.9750    6.1940  -19.9910 C.2    73  LEU73       0.2260
     89  O         15.1010    7.0430  -19.8700 O.2    73  LEU73      -0.2867
     90  CB        15.7870    4.3250  -18.3030 C.3    73  LEU73       0.0270
     91  CG        15.0180    3.1130  -17.7750 C.3    73  LEU73       0.0019
     92  CD1       15.4180    2.8350  -16.3180 C.3    73  LEU73       0.0001
     93  CD2       13.5110    3.3360  -17.9040 C.3    73  LEU73       0.0001
     94  N         13.5480    7.5710  -22.4510 N.3    76  LEU76      -0.1231
     95  CA        12.1620    7.1020  -22.2880 C.3    76  LEU76       0.1693
     96  C         11.3980    7.7180  -21.1230 C.2    76  LEU76       0.2591
     97  O         10.1580    7.7670  -21.1580 O.2    76  LEU76      -0.2718
     98  CB        12.1170    5.5800  -22.1200 C.3    76  LEU76       0.0284
     99  CG        12.6190    4.6810  -23.2490 C.3    76  LEU76       0.0019
    100  CD1       12.4810    3.2170  -22.8400 C.3    76  LEU76       0.0001
    101  CD2       11.8920    4.9600  -24.5550 C.3    76  LEU76       0.0001
    102  N         12.1190    8.1310  -20.0710 N.am   77  VAL77      -0.1980
    103  CA        11.4800    8.7310  -18.8870 C.3    77  VAL77       0.1595
    104  C         12.1660   10.0570  -18.4860 C.2    77  VAL77       0.2287
    105  O         13.3370   10.2650  -18.8090 O.2    77  VAL77      -0.2864
    106  CB        11.4110    7.7360  -17.6710 C.3    77  VAL77       0.0276
    107  CG1       10.7730    6.4000  -18.0670 C.3    77  VAL77       0.0022
    108  CG2       12.7800    7.5020  -17.0750 C.3    77  VAL77       0.0022
    109  N         13.1700   -1.8050  -12.4140 N.3    89  VAL89      -0.1245
    110  CA        13.8420   -2.6660  -13.4020 C.3    89  VAL89       0.1561
    111  C         14.7670   -3.6680  -12.7040 C.2    89  VAL89       0.2260
    112  O         14.7810   -4.8700  -13.0380 O.2    89  VAL89      -0.2867
    113  CB        14.6450   -1.8340  -14.4480 C.3    89  VAL89       0.0252
    114  CG1       15.6110   -2.7300  -15.2560 C.3    89  VAL89       0.0019
    115  CG2       13.7110   -1.0780  -15.3760 C.3    89  VAL89       0.0019
    116  N          7.0760   -4.2640  -11.5840 N.3   113  PHE113     -0.1241
    117  CA         7.4980   -2.8370  -11.6220 C.3   113  PHE113      0.1605
    118  C          6.6110   -2.0120  -10.6880 C.2   113  PHE113      0.2264
    119  O          7.1040   -1.2370   -9.8550 O.2   113  PHE113     -0.2867
    120  CB         7.3750   -2.2010  -13.0150 C.3   113  PHE113      0.0534
    121  CG         8.3370   -2.7190  -14.0650 C.ar  113  PHE113     -0.0203
    122  CD1        9.5040   -3.3860  -13.7400 C.ar  113  PHE113     -0.0042
    123  CD2        8.0700   -2.4680  -15.4150 C.ar  113  PHE113     -0.0042
    124  CE1       10.3790   -3.8360  -14.7410 C.ar  113  PHE113     -0.0003
    125  CE2        8.9330   -2.9170  -16.4290 C.ar  113  PHE113     -0.0003
    126  CZ        10.0970   -3.5910  -16.0840 C.ar  113  PHE113     -0.0000
    127  N          3.8250    5.0780  -10.2220 N.3   121  PHE121     -0.1227
    128  CA         4.1620    4.3070  -11.4010 C.3   121  PHE121      0.1736
    129  C          3.1000    4.5080  -12.4870 C.2   121  PHE121      0.2595
    130  O          1.9130    4.6530  -12.1810 O.2   121  PHE121     -0.2718
    131  CB         4.2950    2.8310  -11.0470 C.3   121  PHE121      0.0547
    132  CG         4.7210    1.9890  -12.1890 C.ar  121  PHE121     -0.0202
    133  CD1        3.8580    1.0550  -12.7330 C.ar  121  PHE121     -0.0042
    134  CD2        5.9830    2.1520  -12.7520 C.ar  121  PHE121     -0.0042
    135  CE1        4.2500    0.2700  -13.8150 C.ar  121  PHE121     -0.0003
    136  CE2        6.3800    1.3870  -13.8370 C.ar  121  PHE121     -0.0003
    137  CZ         5.5140    0.4460  -14.3700 C.ar  121  PHE121     -0.0000
    138  N          3.5290    4.5260  -13.7470 N.am  122  MET122     -0.1965
    139  CA         2.6170    4.7380  -14.8650 C.3   122  MET122      0.1736
    140  C          2.9030    3.8010  -16.0340 C.2   122  MET122      0.2616
    141  O          4.0470    3.5730  -16.3770 O.2   122  MET122     -0.2715
    142  CB         2.6820    6.1880  -15.3280 C.3   122  MET122      0.0427
    143  CG         1.9130    7.1290  -14.4280 C.3   122  MET122      0.0599
    144  SD         2.1960    8.8560  -14.8360 S.3   122  MET122     -0.1393
    145  CE         3.4710    9.2750  -13.6640 C.3   122  MET122      0.0692
    146  N          1.8530    3.2590  -16.6310 N.am  123  TRP123     -0.1960
    147  CA         1.9890    2.4150  -17.8180 C.3   123  TRP123      0.1756
    148  C          1.1890    3.0230  -18.9800 C.2   123  TRP123      0.2461
    149  O          0.0750    3.4770  -18.7800 O.2   123  TRP123     -0.2730
    150  CB         1.5240    0.9850  -17.5180 C.3   123  TRP123      0.0590
    151  CG         1.9200    0.0050  -18.5910 C.ar  123  TRP123      0.0006
    152  CD1        1.1730   -0.3710  -19.6750 C.ar  123  TRP123      0.0946
    153  CD2        3.1640   -0.6990  -18.6940 C.ar  123  TRP123      0.0152
    154  NE1        1.8800   -1.2650  -20.4510 N.ar  123  TRP123     -0.2442
    155  CE2        3.1040   -1.4850  -19.8710 C.ar  123  TRP123      0.0810
    156  CE3        4.3260   -0.7460  -17.9020 C.ar  123  TRP123      0.0012
    157  CZ2        4.1550   -2.3140  -20.2770 C.ar  123  TRP123      0.0191
    158  CZ3        5.3740   -1.5730  -18.3000 C.ar  123  TRP123      0.0001
    159  CH2        5.2850   -2.3380  -19.4930 C.ar  123  TRP123      0.0015
    160  N          1.7620    3.0520  -20.1990 N.am  124  PRO124     -0.2727
    161  CA         1.0230    3.5490  -21.3600 C.3   124  PRO124      0.1402
    162  C         -0.3640    2.9250  -21.4950 C.2   124  PRO124      0.2269
    163  O         -1.3680    3.6420  -21.6100 O.2   124  PRO124     -0.2865
    164  CB         1.9160    3.1400  -22.5390 C.3   124  PRO124      0.0296
    165  CG         3.2650    3.1860  -21.9800 C.3   124  PRO124      0.0237
    166  CD         3.1340    2.6670  -20.5630 C.3   124  PRO124      0.0939
@<TRIPOS>BOND
     1    53    54    1
     2    53    52    1
     3    51    52    1
     4    51    50    1
     5    47    50    1
     6    47    46    1
     7    47    48    1
     8    45    44    2
     9    49    48    2
    10    43    44    1
    11    43    42    1
    12    75    74    1
    13    32    31    1
    14    32    33    1
    15    29    28    2
    16    74    73    1
    17    73    72    1
    18    31    30    1
    19    30    27    1
    20    69    72    1
    21    69    68    1
    22    69    70    1
    23    71    70    2
    24    28    27    1
    25    28    34   am
    26    27    26    1
    27    37    36    2
    28    70    76   am
    29    36    35    1
    30    34    35    1
    31    35    38    1
    32    76    77    1
    33    39    38    1
    34    39    41    1
    35    38    40    1
    36    78    77    1
    37    78    79    2
    38    55    56    1
    39    77    80    1
    40    58    57    2
    41    56    57    1
    42    56    59    1
    43    15    14    2
    44    64    65    2
    45    64    63    1
    46    57    62   am
    47    13    16    1
    48    13    14    1
    49    13    12    1
    50   101    99    1
    51    81    82    1
    52    61    59    1
    53    16    17    1
    54    14    18   am
    55    62    63    1
    56    59    60    1
    57    21    20    2
    58    63    66    1
    59    20    19    1
    60    99   100    1
    61    99    98    1
    62    82    83    1
    63    82    85    1
    64    83    84    2
    65    18    19    1
    66    66    67    1
    67    19    22    1
    68   164   165    1
    69   164   161    1
    70    94    95    1
    71    95    98    1
    72    95    96    1
    73   165   166    1
    74   163   162    2
    75   162   161    1
    76   161   160    1
    77     1     2    1
    78     4     3    2
    79    22    23    1
    80    97    96    2
    81    96   102   am
    82     2     3    1
    83     2     5    1
    84    86    87    1
    85   166   160    1
    86   154   155   ar
    87   154   152   ar
    88   157   155   ar
    89   157   159   ar
    90   160   148   am
    91    23    25    1
    92    23    24    1
    93   102   103    1
    94    88    89    2
    95    88    87    1
    96   155   153   ar
    97    87    90    1
    98   152   151   ar
    99     7     9   ar
   100     7     6   ar
   101     5     6    1
   102   159   158   ar
   103     9    11   ar
   104     6     8   ar
   105   148   149    2
   106   148   147    1
   107   103   104    1
   108   103   106    1
   109   105   104    2
   110   153   151   ar
   111   153   156   ar
   112   151   150    1
   113    90    91    1
   114   158   156   ar
   115   107   106    1
   116    11    10   ar
   117     8    10   ar
   118    93    91    1
   119   147   150    1
   120   147   146    1
   121    91    92    1
   122   106   108    1
   123   146   140   am
   124   125   126   ar
   125   125   123   ar
   126   141   140    2
   127   126   124   ar
   128   140   139    1
   129   123   121   ar
   130   115   113    1
   131   142   139    1
   132   142   143    1
   133   114   113    1
   134   139   138    1
   135   144   143    1
   136   144   145    1
   137   124   122   ar
   138   113   110    1
   139   137   136   ar
   140   137   135   ar
   141   121   122   ar
   142   121   120    1
   143   136   134   ar
   144   135   133   ar
   145   138   129   am
   146   110   111    1
   147   110   109    1
   148   112   111    2
   149   120   117    1
   150   134   132   ar
   151   133   132   ar
   152   129   130    2
   153   129   128    1
   154   132   131    1
   155   117   116    1
   156   117   118    1
   157   128   131    1
   158   128   127    1
   159   118   119    2
