@<TRIPOS>MOLECULE
tmp/3b88A00.pdb
 155 152 0 0 0
SMALL
GASTEIGER

@<TRIPOS>ATOM
      1  N         -4.1890  -21.3090   21.5660 N.3     6  PHE6       -0.1241
      2  CA        -5.0150  -20.1960   22.0240 C.3     6  PHE6        0.1605
      3  C         -4.2340  -18.8840   21.9700 C.2     6  PHE6        0.2264
      4  O         -4.7030  -17.8920   21.3870 O.2     6  PHE6       -0.2867
      5  CB        -5.5470  -20.4380   23.4450 C.3     6  PHE6        0.0534
      6  CG        -6.2760  -19.2520   24.0190 C.ar    6  PHE6       -0.0203
      7  CD1       -7.5390  -18.9050   23.5500 C.ar    6  PHE6       -0.0042
      8  CD2       -5.6920  -18.4670   25.0090 C.ar    6  PHE6       -0.0042
      9  CE1       -8.2150  -17.8040   24.0730 C.ar    6  PHE6       -0.0003
     10  CE2       -6.3660  -17.3650   25.5360 C.ar    6  PHE6       -0.0003
     11  CZ        -7.6360  -17.0460   25.0590 C.ar    6  PHE6       -0.0000
     12  N         -3.8920  -17.7370   18.5970 N.3     9  SER9       -0.1202
     13  CA        -5.1910  -17.3170   18.0460 C.3     9  SER9        0.2020
     14  C         -5.5150  -15.8540   18.3630 C.2     9  SER9        0.2618
     15  O         -6.1310  -15.1530   17.5600 O.2     9  SER9       -0.2717
     16  CB        -6.3190  -18.2280   18.5420 C.3     9  SER9        0.2103
     17  OG        -6.7780  -17.8470   19.8340 O.3     9  SER9       -0.2182
     18  N         -5.0970  -15.3930   19.5370 N.am   10  LEU10      -0.1979
     19  CA        -5.2870  -13.9830   19.9220 C.3    10  LEU10       0.1596
     20  C         -4.7890  -13.0360   18.8340 C.2    10  LEU10       0.2287
     21  O         -5.4960  -12.1210   18.4370 O.2    10  LEU10      -0.2864
     22  CB        -4.6060  -13.6900   21.2600 C.3    10  LEU10       0.0297
     23  CG        -5.1080  -14.5190   22.4480 C.3    10  LEU10       0.0022
     24  CD1       -4.2370  -14.1820   23.6920 C.3    10  LEU10       0.0001
     25  CD2       -6.5930  -14.2800   22.7470 C.3    10  LEU10       0.0001
     26  N         -4.2320  -13.8710   15.6200 N.3    12  MET12      -0.1230
     27  CA        -4.9720  -14.0860   14.3700 C.3    12  MET12       0.1702
     28  C         -6.3390  -13.3920   14.4290 C.2    12  MET12       0.2592
     29  O         -6.7740  -12.7760   13.4530 O.2    12  MET12      -0.2718
     30  CB        -5.1080  -15.5730   14.0400 C.3    12  MET12       0.0401
     31  CG        -3.7730  -16.2180   13.6190 C.3    12  MET12       0.0596
     32  SD        -4.0220  -17.8660   12.9170 S.3    12  MET12      -0.1393
     33  CE        -4.4460  -18.7760   14.3760 C.3    12  MET12       0.0692
     34  N         -6.9920  -13.4710   15.5840 N.am   13  ILE13      -0.1980
     35  CA        -8.2460  -12.7290   15.8080 C.3    13  ILE13       0.1595
     36  C         -8.0210  -11.2230   15.6490 C.2    13  ILE13       0.2287
     37  O         -8.7780  -10.5470   14.9460 O.2    13  ILE13      -0.2864
     38  CB        -8.8710  -13.0480   17.1760 C.3    13  ILE13       0.0276
     39  CG1       -9.2310  -14.5360   17.2520 C.3    13  ILE13       0.0022
     40  CG2      -10.1260  -12.1560   17.4310 C.3    13  ILE13       0.0022
     41  CD1       -9.3650  -15.0630   18.6750 C.3    13  ILE13       0.0001
     42  N         -7.7610   -9.8650   12.1070 N.3    16  GLY16      -0.1225
     43  CA        -9.0370   -9.7930   11.3990 C.3    16  GLY16       0.1811
     44  C         -9.8540   -8.5500   11.7050 C.2    16  GLY16       0.2280
     45  O        -10.7730   -8.2160   10.9540 O.2    16  GLY16      -0.2866
     46  N        -14.2560   -8.2650   17.4330 N.3    51  VAL51      -0.1231
     47  CA       -13.7250   -9.4700   18.0810 C.3    51  VAL51       0.1692
     48  C        -14.8410  -10.3980   18.5960 C.2    51  VAL51       0.2592
     49  O        -14.8460  -11.5950   18.2990 O.2    51  VAL51      -0.2718
     50  CB       -12.7230   -9.1080   19.2200 C.3    51  VAL51       0.0266
     51  CG1      -12.3910  -10.3470   20.0740 C.3    51  VAL51       0.0020
     52  CG2      -11.4400   -8.4880   18.6240 C.3    51  VAL51       0.0020
     53  N        -15.7810   -9.8470   19.3590 N.am   52  SER52      -0.1952
     54  CA       -16.9080  -10.6280   19.8900 C.3    52  SER52       0.1924
     55  C        -17.8470  -11.1680   18.8030 C.2    52  SER52       0.2314
     56  O        -18.3790  -12.2720   18.9480 O.2    52  SER52      -0.2863
     57  CB       -17.6930   -9.8390   20.9350 C.3    52  SER52       0.2116
     58  OG       -16.8580   -9.4750   22.0300 O.3    52  SER52      -0.2180
     59  N        -16.7540  -12.0920   15.8320 N.3    54  MET54      -0.1230
     60  CA       -15.9500  -13.2000   15.3150 C.3    54  MET54       0.1702
     61  C        -16.1040  -14.4910   16.1360 C.2    54  MET54       0.2592
     62  O        -16.0560  -15.6030   15.5920 O.2    54  MET54      -0.2718
     63  CB       -14.4840  -12.7840   15.2450 C.3    54  MET54       0.0401
     64  CG       -13.6760  -13.6100   14.2730 C.3    54  MET54       0.0596
     65  SD       -11.9480  -13.1170   14.1780 S.3    54  MET54      -0.1393
     66  CE       -12.0810  -11.5290   13.3570 C.3    54  MET54       0.0692
     67  N        -16.2900  -14.3240   17.4420 N.am   55  ALA55      -0.1980
     68  CA       -16.5140  -15.4310   18.3630 C.3    55  ALA55       0.1597
     69  C        -17.9440  -15.9540   18.2640 C.2    55  ALA55       0.2287
     70  O        -18.2370  -17.0420   18.7400 O.2    55  ALA55      -0.2864
     71  CB       -16.2170  -14.9840   19.7990 C.3    55  ALA55       0.0319
     72  N        -17.7710  -21.7580   23.5480 N.3    73  LEU73      -0.1245
     73  CA       -16.5480  -21.7650   24.3730 C.3    73  LEU73       0.1561
     74  C        -15.5680  -22.9190   24.1330 C.2    73  LEU73       0.2260
     75  O        -14.3670  -22.6710   24.0280 O.2    73  LEU73      -0.2867
     76  CB       -16.8540  -21.6180   25.8700 C.3    73  LEU73       0.0270
     77  CG       -17.0030  -20.2080   26.4460 C.3    73  LEU73       0.0019
     78  CD1      -17.2690  -20.3180   27.9440 C.3    73  LEU73       0.0001
     79  CD2      -15.7820  -19.3390   26.1770 C.3    73  LEU73       0.0001
     80  N        -14.7750  -24.1910   21.5500 N.3    75  HIS75      -0.1226
     81  CA       -14.0360  -23.8600   20.3280 C.3    75  HIS75       0.1752
     82  C        -13.2990  -22.5210   20.4250 C.2    75  HIS75       0.2596
     83  O        -12.5580  -22.1550   19.5090 O.2    75  HIS75      -0.2718
     84  CB       -14.9780  -23.8530   19.1160 C.3    75  HIS75       0.0759
     85  CG       -15.9850  -24.9640   19.1260 C.ar   75  HIS75       0.0818
     86  ND1      -15.6770  -26.2530   18.7430 N.ar   75  HIS75      -0.2268
     87  CD2      -17.2910  -24.9800   19.4870 C.ar   75  HIS75       0.1154
     88  CE1      -16.7510  -27.0140   18.8640 C.ar   75  HIS75       0.1986
     89  NE2      -17.7440  -26.2660   19.3130 N.ar   75  HIS75      -0.2212
     90  N        -13.4960  -21.7910   21.5230 N.am   76  LEU76      -0.1966
     91  CA       -12.9040  -20.4600   21.6700 C.3    76  LEU76       0.1728
     92  C        -11.7090  -20.4200   22.6260 C.2    76  LEU76       0.2616
     93  O        -10.7520  -19.6790   22.3920 O.2    76  LEU76      -0.2715
     94  CB       -13.9550  -19.4320   22.1070 C.3    76  LEU76       0.0311
     95  CG       -15.2550  -19.2800   21.2970 C.3    76  LEU76       0.0022
     96  CD1      -16.1120  -18.1560   21.8460 C.3    76  LEU76       0.0001
     97  CD2      -14.9940  -19.0760   19.8110 C.3    76  LEU76       0.0001
     98  N        -11.7750  -21.2050   23.7020 N.am   77  VAL77      -0.1977
     99  CA       -10.7660  -21.1640   24.7610 C.3    77  VAL77       0.1596
    100  C        -10.2780  -22.5660   25.1270 C.2    77  VAL77       0.2287
    101  O        -11.0030  -23.5590   24.9120 O.2    77  VAL77      -0.2864
    102  CB       -11.2740  -20.4100   26.0390 C.3    77  VAL77       0.0276
    103  CG1      -11.7300  -18.9890   25.6880 C.3    77  VAL77       0.0022
    104  CG2      -12.3780  -21.1920   26.7510 C.3    77  VAL77       0.0022
    105  N        -16.1130   -8.9630   31.7610 N.3   113  PHE113     -0.1241
    106  CA       -15.3630  -10.2300   31.6990 C.3   113  PHE113      0.1605
    107  C        -14.0360  -10.0740   32.4340 C.2   113  PHE113      0.2264
    108  O        -13.6730  -10.9160   33.2570 O.2   113  PHE113     -0.2867
    109  CB       -15.0470  -10.6780   30.2590 C.3   113  PHE113      0.0534
    110  CG       -16.2320  -11.1290   29.4500 C.ar  113  PHE113     -0.0203
    111  CD1      -17.4160  -11.5400   30.0460 C.ar  113  PHE113     -0.0042
    112  CD2      -16.1380  -11.1680   28.0590 C.ar  113  PHE113     -0.0042
    113  CE1      -18.5110  -11.9680   29.2680 C.ar  113  PHE113     -0.0003
    114  CE2      -17.2140  -11.5920   27.2670 C.ar  113  PHE113     -0.0003
    115  CZ       -18.4090  -11.9940   27.8800 C.ar  113  PHE113     -0.0000
    116  N         -6.7790  -12.8030   32.3560 N.3   121  PHE121     -0.1227
    117  CA        -7.7450  -12.6100   31.2690 C.3   121  PHE121      0.1736
    118  C         -6.9990  -11.9790   30.1040 C.2   121  PHE121      0.2595
    119  O         -6.1760  -11.0870   30.2970 O.2   121  PHE121     -0.2718
    120  CB        -8.8990  -11.7080   31.7280 C.3   121  PHE121      0.0547
    121  CG        -9.9650  -11.4890   30.6790 C.ar  121  PHE121     -0.0202
    122  CD1      -10.0200  -10.2960   29.9630 C.ar  121  PHE121     -0.0042
    123  CD2      -10.9060  -12.4710   30.4100 C.ar  121  PHE121     -0.0042
    124  CE1      -10.9930  -10.0870   28.9900 C.ar  121  PHE121     -0.0003
    125  CE2      -11.8770  -12.2780   29.4380 C.ar  121  PHE121     -0.0003
    126  CZ       -11.9280  -11.0760   28.7290 C.ar  121  PHE121     -0.0000
    127  N         -7.2890  -12.4530   28.8990 N.am  122  MET122     -0.1965
    128  CA        -6.5730  -12.0290   27.7160 C.3   122  MET122      0.1736
    129  C         -7.5600  -11.6780   26.6220 C.2   122  MET122      0.2616
    130  O         -8.4200  -12.4870   26.2730 O.2   122  MET122     -0.2715
    131  CB        -5.6530  -13.1560   27.2600 C.3   122  MET122      0.0427
    132  CG        -4.5900  -13.4960   28.2870 C.3   122  MET122      0.0599
    133  SD        -3.5060  -14.7880   27.6980 S.3   122  MET122     -0.1393
    134  CE        -2.9210  -15.4720   29.2670 C.3   122  MET122      0.0692
    135  N         -7.4640  -10.4640   26.1000 N.am  123  TRP123     -0.1960
    136  CA        -8.3010  -10.0630   24.9700 C.3   123  TRP123      0.1756
    137  C         -7.4680  -10.0940   23.6930 C.2   123  TRP123      0.2461
    138  O         -6.3010   -9.6980   23.7230 O.2   123  TRP123     -0.2730
    139  CB        -8.8680   -8.6660   25.1910 C.3   123  TRP123      0.0590
    140  CG        -9.9720   -8.3570   24.2730 C.ar  123  TRP123      0.0006
    141  CD1       -9.9170   -7.5720   23.1640 C.ar  123  TRP123      0.0946
    142  CD2      -11.3060   -8.8540   24.3520 C.ar  123  TRP123      0.0152
    143  NE1      -11.1340   -7.5400   22.5480 N.ar  123  TRP123     -0.2442
    144  CE2      -12.0120   -8.3160   23.2590 C.ar  123  TRP123      0.0810
    145  CE3      -11.9800   -9.6990   25.2470 C.ar  123  TRP123      0.0012
    146  CZ2      -13.3690   -8.5880   23.0290 C.ar  123  TRP123      0.0191
    147  CZ3      -13.3360   -9.9750   25.0130 C.ar  123  TRP123      0.0001
    148  CH2      -14.0100   -9.4190   23.9160 C.ar  123  TRP123      0.0015
    149  N         -8.0400  -10.5940   22.5750 N.am  124  PRO124     -0.2727
    150  CA        -7.3080  -10.5500   21.3170 C.3   124  PRO124      0.1402
    151  C         -6.8390   -9.1540   20.9640 C.2   124  PRO124      0.2269
    152  O         -5.6930   -8.9630   20.5480 O.2   124  PRO124     -0.2865
    153  CB        -8.3400  -11.0350   20.3010 C.3   124  PRO124      0.0296
    154  CG        -9.1680  -11.9820   21.0840 C.3   124  PRO124      0.0237
    155  CD        -9.3410  -11.2670   22.4050 C.3   124  PRO124      0.0939
@<TRIPOS>BOND
     1    45    44    2
     2    43    44    1
     3    43    42    1
     4    32    31    1
     5    32    33    1
     6    66    65    1
     7    29    28    2
     8    31    30    1
     9    30    27    1
    10    65    64    1
    11    64    63    1
    12    27    28    1
    13    27    26    1
    14    28    34   am
    15    37    36    2
    16    63    60    1
    17    60    59    1
    18    60    61    1
    19    34    35    1
    20    62    61    2
    21    36    35    1
    22    35    38    1
    23    61    67   am
    24    38    39    1
    25    38    40    1
    26    39    41    1
    27    46    47    1
    28    67    68    1
    29    15    14    2
    30    13    14    1
    31    13    16    1
    32    13    12    1
    33    47    48    1
    34    47    50    1
    35    69    68    1
    36    69    70    2
    37    49    48    2
    38    14    18   am
    39    68    71    1
    40    21    20    2
    41    16    17    1
    42    48    53   am
    43    52    50    1
    44    86    88   ar
    45    86    85   ar
    46    55    56    2
    47    55    54    1
    48    20    19    1
    49    88    89   ar
    50    84    85    1
    51    84    81    1
    52    85    87   ar
    53    50    51    1
    54    89    87   ar
    55    53    54    1
    56    83    82    2
    57    18    19    1
    58    97    95    1
    59    54    57    1
    60    19    22    1
    61   153   154    1
    62   153   150    1
    63    81    82    1
    64    81    80    1
    65    82    90   am
    66   152   151    2
    67    57    58    1
    68   151   150    1
    69   154   155    1
    70    22    23    1
    71    95    96    1
    72    95    94    1
    73   150   149    1
    74     4     3    2
    75    90    91    1
    76     1     2    1
    77    91    94    1
    78    91    92    1
    79     3     2    1
    80     2     5    1
    81    93    92    2
    82   155   149    1
    83    23    25    1
    84    23    24    1
    85   143   141   ar
    86   143   144   ar
    87   149   137   am
    88    92    98   am
    89   146   144   ar
    90   146   148   ar
    91   141   140   ar
    92   144   142   ar
    93     5     6    1
    94    72    73    1
    95     7     6   ar
    96     7     9   ar
    97   137   138    2
    98   137   136    1
    99    98    99    1
   100   148   147   ar
   101     6     8   ar
   102    75    74    2
   103     9    11   ar
   104    74    73    1
   105   140   142   ar
   106   140   139    1
   107   142   145   ar
   108    73    76    1
   109    99   100    1
   110    99   102    1
   111   101   100    2
   112   136   139    1
   113   136   135    1
   114     8    10   ar
   115   147   145   ar
   116    11    10   ar
   117   103   102    1
   118    76    77    1
   119   102   104    1
   120   135   129   am
   121    79    77    1
   122   130   129    2
   123    77    78    1
   124   129   128    1
   125   131   128    1
   126   131   132    1
   127   114   115   ar
   128   114   112   ar
   129   133   132    1
   130   133   134    1
   131   128   127    1
   132   115   113   ar
   133   112   110   ar
   134   126   124   ar
   135   126   125   ar
   136   127   118   am
   137   124   122   ar
   138   113   111   ar
   139   125   123   ar
   140   110   111   ar
   141   110   109    1
   142   122   121   ar
   143   118   119    2
   144   118   117    1
   145   109   106    1
   146   123   121   ar
   147   121   120    1
   148   117   120    1
   149   117   116    1
   150   106   105    1
   151   106   107    1
   152   107   108    2
