@<TRIPOS>MOLECULE
tmp/3b89A00.pdb
 184 174 0 0 0
SMALL
GASTEIGER

@<TRIPOS>ATOM
      1  N         20.7770   31.2280   16.1000 N.3    25  ARG25      -0.1245
      2  CA        20.6600   29.9660   15.3930 C.3    25  ARG25       0.1563
      3  C         19.5060   30.0460   14.4260 C.2    25  ARG25       0.2260
      4  O         19.6520   29.7450   13.2460 O.2    25  ARG25      -0.2867
      5  CB        20.4130   28.8150   16.3690 C.3    25  ARG25       0.0307
      6  CG        20.0240   27.5140   15.6920 C.3    25  ARG25       0.0489
      7  CD        20.1240   26.3460   16.6510 C.3    25  ARG25       0.2205
      8  NE        19.0700   26.3080   17.6650 N.pl3  25  ARG25      -0.0865
      9  CZ        17.7760   26.1140   17.4020 C.cat  25  ARG25       0.5346
     10  NH1       17.3570   25.9530   16.1480 N.pl3  25  ARG25       0.1354
     11  NH2       16.9040   26.0360   18.4000 N.pl3  25  ARG25       0.1354
     12  N          8.7860   28.5180   20.0440 N.3    51  ILE51      -0.1231
     13  CA        10.0700   27.8560   20.2580 C.3    51  ILE51       0.1692
     14  C         10.2620   27.7470   21.7610 C.2    51  ILE51       0.2592
     15  O         11.1770   27.0720   22.2220 O.2    51  ILE51      -0.2718
     16  CB        11.2490   28.6900   19.7200 C.3    51  ILE51       0.0266
     17  CG1       12.4800   27.8090   19.4580 C.3    51  ILE51       0.0019
     18  CG2       11.6030   29.7950   20.6980 C.3    51  ILE51       0.0020
     19  CD1       12.3930   27.0430   18.1590 C.3    51  ILE51       0.0001
     20  N          9.3840   28.3990   22.5260 N.am   52  CYS52      -0.1956
     21  CA         9.5170   28.4250   23.9820 C.3    52  CYS52       0.1843
     22  C          8.1750   28.6050   24.7830 C.2    52  CYS52       0.2626
     23  O          7.5480   29.7020   24.8010 O.2    52  CYS52      -0.2714
     24  CB        10.5640   29.5120   24.2850 C.3    52  CYS52       0.0997
     25  SG        11.0060   29.6670   25.9920 S.3    52  CYS52      -0.0797
     26  N          7.7710   27.4790   25.4000 N.am   53  GLY53      -0.1954
     27  CA         6.5580   27.3540   26.2040 C.3    53  GLY53       0.1869
     28  C          5.2110   27.5890   25.4810 C.2    53  GLY53       0.2309
     29  O          4.3600   26.6870   25.3830 O.2    53  GLY53      -0.2863
     30  N          5.0750   30.2320   27.8640 N.3    55  VAL55      -0.1245
     31  CA         5.8210   31.0300   28.8410 C.3    55  VAL55       0.1561
     32  C          5.6220   32.5320   28.6230 C.2    55  VAL55       0.2260
     33  O          6.2830   33.1580   27.7940 O.2    55  VAL55      -0.2867
     34  CB         7.3110   30.6800   28.7930 C.3    55  VAL55       0.0252
     35  CG1        8.1190   31.5010   29.7920 C.3    55  VAL55       0.0019
     36  CG2        7.4760   29.1990   29.1450 C.3    55  VAL55       0.0019
     37  N          3.5890   26.4350   35.0860 N.3    79  HIS79      -0.1241
     38  CA         4.4430   26.1050   33.9520 C.3    79  HIS79       0.1621
     39  C          3.7460   24.9270   33.2880 C.2    79  HIS79       0.2264
     40  O          3.3850   23.9590   33.9590 O.2    79  HIS79      -0.2867
     41  CB         5.8480   25.6920   34.3990 C.3    79  HIS79       0.0745
     42  CG         6.7360   25.2550   33.2710 C.ar   79  HIS79       0.0817
     43  ND1        7.2920   23.9930   33.2030 N.ar   79  HIS79      -0.2268
     44  CD2        7.1440   25.9060   32.1540 C.ar   79  HIS79       0.1154
     45  CE1        8.0000   23.8860   32.0920 C.ar   79  HIS79       0.1986
     46  NE2        7.9260   25.0320   31.4380 N.ar   79  HIS79      -0.2212
     47  N          4.6200   22.3250   30.9680 N.3    81  SER81      -0.1217
     48  CA         5.2210   21.0020   31.0580 C.3    81  SER81       0.1889
     49  C          5.1470   20.3850   32.4610 C.2    81  SER81       0.2288
     50  O          4.7390   19.2310   32.6250 O.2    81  SER81      -0.2866
     51  CB         6.6750   21.0770   30.5940 C.3    81  SER81       0.2089
     52  OG         7.2880   19.8000   30.6370 O.3    81  SER81      -0.2183
     53  N          2.6210   17.0200   34.5660 N.3    85  ARG85      -0.1245
     54  CA         3.3500   15.9100   35.1670 C.3    85  ARG85       0.1563
     55  C          3.1970   16.0360   36.6770 C.2    85  ARG85       0.2260
     56  O          3.7790   15.2780   37.4360 O.2    85  ARG85      -0.2867
     57  CB         4.8260   16.0230   34.7740 C.3    85  ARG85       0.0307
     58  CG         5.7870   15.1660   35.5600 C.3    85  ARG85       0.0489
     59  CD         7.2150   15.6950   35.3920 C.3    85  ARG85       0.2205
     60  NE         7.5940   15.8060   33.9870 N.pl3  85  ARG85      -0.0865
     61  CZ         8.0490   16.9150   33.4210 C.cat  85  ARG85       0.5346
     62  NH1        8.1840   18.0220   34.1480 N.pl3  85  ARG85       0.1354
     63  NH2        8.3600   16.9180   32.1280 N.pl3  85  ARG85       0.1354
     64  N         16.9690   21.5280   29.6990 N.3   109  ALA109     -0.1231
     65  CA        15.7320   22.1870   29.2890 C.3   109  ALA109      0.1694
     66  C         14.8340   22.0440   30.5040 C.2   109  ALA109      0.2592
     67  O         13.6610   21.6900   30.4060 O.2   109  ALA109     -0.2718
     68  CB        15.1230   21.4850   28.0810 C.3   109  ALA109      0.0304
     69  N         15.4230   22.3350   31.6540 N.am  110  CYS110     -0.1956
     70  CA        14.7780   22.2120   32.9510 C.3   110  CYS110      0.1843
     71  C         13.3830   22.7680   33.1430 C.2   110  CYS110      0.2626
     72  O         12.5120   22.0730   33.6580 O.2   110  CYS110     -0.2714
     73  CB        15.6940   22.7910   34.0380 C.3   110  CYS110      0.0997
     74  SG        15.9800   24.5760   33.9490 S.3   110  CYS110     -0.0797
     75  N         13.1620   24.0140   32.7410 N.am  111  GLY111     -0.1954
     76  CA        11.8540   24.6150   32.9470 C.3   111  GLY111      0.1869
     77  C         11.7490   24.8960   34.4380 C.2   111  GLY111      0.2309
     78  O         12.7500   25.2390   35.0720 O.2   111  GLY111     -0.2863
     79  N         19.5670   24.0250   32.7170 N.3   128  CYS128     -0.1221
     80  CA        19.7550   24.9640   31.6180 C.3   128  CYS128      0.1808
     81  C         18.4820   25.0520   30.8090 C.2   128  CYS128      0.2601
     82  O         17.7070   24.0900   30.7310 O.2   128  CYS128     -0.2717
     83  CB        20.8980   24.5270   30.6950 C.3   128  CYS128      0.0970
     84  SG        20.5730   23.0300   29.6940 S.3   128  CYS128     -0.0800
     85  N         18.2610   26.2170   30.2170 N.am  129  ASP129     -0.1959
     86  CA        17.0970   26.4270   29.3800 C.3   129  ASP129      0.1840
     87  C         17.2650   27.7020   28.5710 C.2   129  ASP129      0.2621
     88  O         18.1910   28.4770   28.8060 O.2   129  ASP129     -0.2715
     89  CB        15.8170   26.4870   30.2080 C.3   129  ASP129      0.1450
     90  CG        14.6520   25.8010   29.5070 C.2   129  ASP129      0.3671
     91  OD1       14.5490   25.9530   28.2700 O.co2 129  ASP129     -0.2456
     92  OD2       13.8450   25.1180   30.1800 O.co2 129  ASP129     -0.2456
     93  N         16.3640   27.9130   27.6160 N.am  130  ILE130     -0.1977
     94  CA        16.4510   29.0710   26.7380 C.3   130  ILE130      0.1596
     95  C         15.5580   30.2520   27.0680 C.2   130  ILE130      0.2287
     96  O         15.1900   31.0060   26.1830 O.2   130  ILE130     -0.2864
     97  CB        16.1920   28.6640   25.2870 C.3   130  ILE130      0.0276
     98  CG1       14.7910   28.0770   25.1580 C.3   130  ILE130      0.0022
     99  CG2       17.2320   27.6360   24.8490 C.3   130  ILE130      0.0022
    100  CD1       14.3590   27.8240   23.7360 C.3   130  ILE130      0.0001
    101  N         12.9230   31.7900   33.6350 N.3   134  LEU134     -0.1245
    102  CA        12.9530   30.5740   34.4340 C.3   134  LEU134      0.1561
    103  C         13.9470   30.6840   35.5860 C.2   134  LEU134      0.2260
    104  O         13.5770   30.4950   36.7460 O.2   134  LEU134     -0.2867
    105  CB        13.2920   29.3720   33.5450 C.3   134  LEU134      0.0270
    106  CG        12.1860   28.9640   32.5700 C.3   134  LEU134      0.0019
    107  CD1       12.6070   27.7670   31.7730 C.3   134  LEU134      0.0001
    108  CD2       10.9200   28.6520   33.3510 C.3   134  LEU134      0.0001
    109  N         21.1870   28.5150   28.1570 N.3   154  GLN154     -0.1231
    110  CA        21.9390   27.8450   27.1120 C.3   154  GLN154      0.1698
    111  C         21.0990   26.9640   26.2060 C.2   154  GLN154      0.2592
    112  O         20.2290   26.2310   26.6720 O.2   154  GLN154     -0.2718
    113  CB        23.0390   27.0010   27.7750 C.3   154  GLN154      0.0381
    114  CG        23.9440   26.2210   26.8390 C.3   154  GLN154      0.0905
    115  CD        24.9950   25.4340   27.6000 C.2   154  GLN154      0.2608
    116  OE1       25.3830   25.8110   28.7120 O.2   154  GLN154     -0.2717
    117  NE2       25.4770   24.3440   27.0010 N.am  154  GLN154     -0.0878
    118  N         21.3770   27.0440   24.9080 N.am  155  ASP155     -0.1960
    119  CA        20.6870   26.2350   23.9070 C.3   155  ASP155      0.1840
    120  C         21.6000   25.0530   23.5850 C.2   155  ASP155      0.2622
    121  O         22.6770   25.2330   23.0160 O.2   155  ASP155     -0.2715
    122  CB        20.4380   27.0480   22.6360 C.3   155  ASP155      0.1450
    123  CG        19.6380   26.2830   21.6100 C.2   155  ASP155      0.3671
    124  OD1       20.0850   25.1960   21.1990 O.co2 155  ASP155     -0.2456
    125  OD2       18.5540   26.7600   21.2130 O.co2 155  ASP155     -0.2456
    126  N         21.1680   23.8470   23.9390 N.am  156  VAL156     -0.1963
    127  CA        21.9760   22.6560   23.7110 C.3   156  VAL156      0.1727
    128  C         22.2980   22.3330   22.2560 C.2   156  VAL156      0.2616
    129  O         23.0280   21.3890   21.9750 O.2   156  VAL156     -0.2715
    130  CB        21.3310   21.4220   24.3760 C.3   156  VAL156      0.0290
    131  CG1       21.2970   21.6250   25.8800 C.3   156  VAL156      0.0023
    132  CG2       19.9280   21.2030   23.8430 C.3   156  VAL156      0.0023
    133  N         21.7680   23.1130   21.3270 N.am  157  LEU157     -0.1977
    134  CA        22.0490   22.8720   19.9210 C.3   157  LEU157      0.1596
    135  C         23.2440   23.6970   19.4510 C.2   157  LEU157      0.2287
    136  O         23.8160   23.4360   18.3950 O.2   157  LEU157     -0.2864
    137  CB        20.8200   23.1870   19.0660 C.3   157  LEU157      0.0297
    138  CG        19.6860   22.1520   19.0380 C.3   157  LEU157      0.0022
    139  CD1       18.5970   22.6310   18.0800 C.3   157  LEU157      0.0001
    140  CD2       20.2180   20.7960   18.5840 C.3   157  LEU157      0.0001
    141  N         13.6250   15.3990   29.7490 N.3   171  PHE171     -0.1227
    142  CA        12.1650   15.2500   29.6810 C.3   171  PHE171      0.1736
    143  C         11.5700   15.9500   28.4590 C.2   171  PHE171      0.2595
    144  O         11.8640   17.1250   28.2040 O.2   171  PHE171     -0.2718
    145  CB        11.5200   15.8260   30.9550 C.3   171  PHE171      0.0547
    146  CG        11.8200   15.0410   32.2070 C.ar  171  PHE171     -0.0202
    147  CD1       11.4200   15.5220   33.4550 C.ar  171  PHE171     -0.0042
    148  CD2       12.4740   13.8130   32.1420 C.ar  171  PHE171     -0.0042
    149  CE1       11.6650   14.7880   34.6190 C.ar  171  PHE171     -0.0003
    150  CE2       12.7250   13.0710   33.2940 C.ar  171  PHE171     -0.0003
    151  CZ        12.3200   13.5570   34.5360 C.ar  171  PHE171     -0.0000
    152  N         10.7310   15.2230   27.7210 N.am  172  LYS172     -0.1966
    153  CA        10.0770   15.7460   26.5240 C.3   172  LYS172      0.1728
    154  C         10.9270   16.8130   25.8490 C.2   172  LYS172      0.2616
    155  O         10.5700   17.9950   25.8400 O.2   172  LYS172     -0.2715
    156  CB         8.7040   16.3210   26.8890 C.3   172  LYS172      0.0311
    157  CG         7.7490   15.2770   27.4730 C.3   172  LYS172      0.0038
    158  CD         7.1490   15.7030   28.8330 C.3   172  LYS172      0.0206
    159  CE         6.0300   16.7510   28.6980 C.3   172  LYS172      0.1093
    160  NZ         5.3670   17.0750   30.0090 N.3   172  LYS172     -0.1314
    161  N         12.0560   16.3920   25.2870 N.am  173  LEU173     -0.1977
    162  CA        12.9710   17.3190   24.6210 C.3   173  LEU173      0.1596
    163  C         13.5550   16.7290   23.3400 C.2   173  LEU173      0.2287
    164  O         13.6530   17.4090   22.3210 O.2   173  LEU173     -0.2864
    165  CB        14.1180   17.6970   25.5570 C.3   173  LEU173      0.0297
    166  CG        15.1320   18.6450   24.9280 C.3   173  LEU173      0.0022
    167  CD1       14.4400   19.9660   24.6170 C.3   173  LEU173      0.0001
    168  CD2       16.3130   18.8560   25.8670 C.3   173  LEU173      0.0001
    169  N         11.7740   17.5010   19.9960 N.3   176  LEU176     -0.1231
    170  CA        11.9190   18.8730   19.5320 C.3   176  LEU176      0.1693
    171  C         13.3450   19.0860   19.0450 C.2   176  LEU176      0.2591
    172  O         13.5990   19.9030   18.1650 O.2   176  LEU176     -0.2718
    173  CB        11.6070   19.8600   20.6750 C.3   176  LEU176      0.0284
    174  CG        10.1970   19.8340   21.3040 C.3   176  LEU176      0.0019
    175  CD1       10.1570   20.7230   22.5490 C.3   176  LEU176      0.0001
    176  CD2        9.1550   20.3070   20.2910 C.3   176  LEU176      0.0001
    177  N         14.2840   18.3540   19.6290 N.am  177  LEU177     -0.1980
    178  CA        15.6770   18.4890   19.2290 C.3   177  LEU177      0.1596
    179  C         15.9050   17.8570   17.8820 C.2   177  LEU177      0.2287
    180  O         16.5490   18.4360   17.0180 O.2   177  LEU177     -0.2864
    181  CB        16.6000   17.8180   20.2360 C.3   177  LEU177      0.0297
    182  CG        17.0480   18.6960   21.3950 C.3   177  LEU177      0.0022
    183  CD1       17.8890   17.8670   22.3430 C.3   177  LEU177      0.0001
    184  CD2       17.8390   19.8870   20.8630 C.3   177  LEU177      0.0001
@<TRIPOS>BOND
     1     4     3    2
     2     3     2    1
     3     2     1    1
     4     2     5    1
     5     6     5    1
     6     6     7    1
     7    10     9    1
     8     7     8    1
     9   180   179    2
    10     9     8    2
    11     9    11    1
    12   179   178    1
    13   139   138    1
    14    19    17    1
    15   172   171    2
    16   136   135    2
    17   140   138    1
    18   138   137    1
    19   171   170    1
    20   171   177   am
    21   137   134    1
    22   178   177    1
    23   178   181    1
    24   135   134    1
    25    17    16    1
    26   170   169    1
    27   170   173    1
    28    16    13    1
    29    16    18    1
    30   134   133    1
    31    12    13    1
    32   181   182    1
    33    13    14    1
    34   176   174    1
    35   173   174    1
    36   184   182    1
    37   124   123   ar
    38   125   123   ar
    39   174   175    1
    40   133   128   am
    41   182   183    1
    42   123   122    1
    43    14    15    2
    44    14    20   am
    45   129   128    2
    46   128   127    1
    47   164   163    2
    48    20    21    1
    49   122   119    1
    50   121   120    2
    51   163   162    1
    52   120   119    1
    53   120   126   am
    54   127   126    1
    55   127   130    1
    56   100    98    1
    57   132   130    1
    58   119   118    1
    59    21    24    1
    60    21    22    1
    61    24    25    1
    62   130   131    1
    63   167   166    1
    64   162   161    1
    65   162   165    1
    66    22    23    2
    67    22    26   am
    68    99    97    1
    69   118   111   am
    70   166   165    1
    71   166   168    1
    72    98    97    1
    73   161   154   am
    74    97    94    1
    75    29    28    2
    76    26    27    1
    77    28    27    1
    78   155   154    2
    79   154   153    1
    80    96    95    2
    81   111   112    2
    82   111   110    1
    83   153   156    1
    84   153   152    1
    85    94    95    1
    86    94    93    1
    87   114   115    1
    88   114   113    1
    89   156   157    1
    90   117   115   am
    91   110   113    1
    92   110   109    1
    93   157   158    1
    94   115   116    2
    95    93    87   am
    96   152   143   am
    97    33    32    2
    98    30    31    1
    99    68    65    1
   100   144   143    2
   101    91    90   ar
   102   143   142    1
   103    87    88    2
   104    87    86    1
   105    32    31    1
   106   159   158    1
   107   159   160    1
   108    34    31    1
   109    34    36    1
   110    34    35    1
   111    65    64    1
   112    65    66    1
   113    86    89    1
   114    86    85    1
   115    90    92   ar
   116    90    89    1
   117   142   141    1
   118   142   145    1
   119    84    83    1
   120    85    81   am
   121    67    66    2
   122    66    69   am
   123    51    52    1
   124    51    48    1
   125    83    80    1
   126    82    81    2
   127    81    80    1
   128   145   146    1
   129    47    48    1
   130    48    49    1
   131    46    45   ar
   132    46    44   ar
   133    80    79    1
   134    69    70    1
   135   107   106    1
   136    45    43   ar
   137    63    61    1
   138   148   146   ar
   139   148   150   ar
   140    44    42   ar
   141   146   147   ar
   142    49    50    2
   143   106   108    1
   144   106   105    1
   145    75    76    1
   146    75    71   am
   147    76    77    1
   148    70    71    1
   149    70    73    1
   150    71    72    2
   151    43    42   ar
   152    42    41    1
   153    39    38    1
   154    39    40    2
   155   150   151   ar
   156    61    60    2
   157    61    62    1
   158   147   149   ar
   159   105   102    1
   160   101   102    1
   161    74    73    1
   162    38    41    1
   163    38    37    1
   164    60    59    1
   165   102   103    1
   166    77    78    2
   167   151   149   ar
   168    53    54    1
   169    57    54    1
   170    57    58    1
   171    54    55    1
   172    59    58    1
   173   103   104    2
   174    55    56    2
