@<TRIPOS>MOLECULE
tmp/3b8aA00.pdb
 109 104 0 0 0
SMALL
GASTEIGER

@<TRIPOS>ATOM
      1  N         24.3230    2.4440   45.9480 N.3   143  SER143     -0.1202
      2  CA        24.9570    3.6570   46.4670 C.3   143  SER143      0.2020
      3  C         26.2470    3.4090   47.2510 C.2   143  SER143      0.2619
      4  O         26.3800    3.8260   48.4010 O.2   143  SER143     -0.2717
      5  CB        23.9670    4.4720   47.3050 C.3   143  SER143      0.2103
      6  OG        23.3400    3.6680   48.2880 O.3   143  SER143     -0.2182
      7  N         27.1940    2.7390   46.6050 N.am  144  TYR144     -0.1962
      8  CA        28.5100    2.4860   47.1790 C.3   144  TYR144      0.1756
      9  C         29.5200    2.7760   46.0880 C.2   144  TYR144      0.2461
     10  O         29.1790    2.6970   44.9080 O.2   144  TYR144     -0.2730
     11  CB        28.6010    1.0340   47.6550 C.3   144  TYR144      0.0574
     12  CG        27.4460    0.6790   48.5560 C.ar  144  TYR144     -0.0198
     13  CD1       26.2440    0.2250   48.0310 C.ar  144  TYR144     -0.0009
     14  CD2       27.5380    0.8450   49.9290 C.ar  144  TYR144     -0.0009
     15  CE1       25.1760   -0.0730   48.8480 C.ar  144  TYR144      0.0417
     16  CE2       26.4770    0.5470   50.7530 C.ar  144  TYR144      0.0417
     17  CZ        25.2990    0.0890   50.2060 C.ar  144  TYR144      0.1957
     18  OH        24.2360   -0.2050   51.0280 O.3   144  TYR144     -0.2866
     19  N         30.7530    3.1490   46.4660 N.am  145  PRO145     -0.2727
     20  CA        31.7610    3.4570   45.4470 C.3   145  PRO145      0.1402
     21  C         31.8660    2.3370   44.4150 C.2   145  PRO145      0.2269
     22  O         32.0540    1.1720   44.7730 O.2   145  PRO145     -0.2865
     23  CB        33.0540    3.5610   46.2590 C.3   145  PRO145      0.0296
     24  CG        32.6130    3.9980   47.5890 C.3   145  PRO145      0.0237
     25  CD        31.2710    3.3540   47.8270 C.3   145  PRO145      0.0939
     26  N         30.9210    0.6660   52.2760 N.3   160  THR160     -0.1203
     27  CA        30.8050    1.7350   53.2620 C.3   160  THR160      0.1994
     28  C         29.4650    1.6170   53.9790 C.2   160  THR160      0.2617
     29  O         28.6880    0.7020   53.7010 O.2   160  THR160     -0.2717
     30  CB        30.9200    3.1400   52.6230 C.3   160  THR160      0.1784
     31  OG1       29.8460    3.3440   51.6970 O.3   160  THR160     -0.2211
     32  CG2       32.2540    3.3060   51.9060 C.3   160  THR160      0.0376
     33  N         29.2040    2.5380   54.9040 N.am  161  LYS161     -0.1979
     34  CA        27.9190    2.6040   55.5990 C.3   161  LYS161      0.1596
     35  C         27.5400    1.3120   56.3360 C.2   161  LYS161      0.2287
     36  O         26.3640    0.9460   56.4090 O.2   161  LYS161     -0.2864
     37  CB        26.8120    3.0300   54.6300 C.3   161  LYS161      0.0298
     38  CG        26.9290    4.4740   54.1740 C.3   161  LYS161      0.0038
     39  CD        26.6910    4.6090   52.6800 C.3   161  LYS161      0.0206
     40  CE        25.3110    4.1100   52.2850 C.3   161  LYS161      0.1093
     41  NZ        25.0710    4.2330   50.8220 N.3   161  LYS161     -0.1314
     42  N         23.8600    5.6070   40.9310 N.3   195  ASN195     -0.1225
     43  CA        24.1870    6.0530   42.2800 C.3   195  ASN195      0.1785
     44  C         23.0570    6.8940   42.8630 C.2   195  ASN195      0.2597
     45  O         22.4800    7.7260   42.1700 O.2   195  ASN195     -0.2718
     46  CB        25.4860    6.8560   42.2860 C.3   195  ASN195      0.1169
     47  CG        25.9820    7.1500   43.6890 C.2   195  ASN195      0.2627
     48  OD1       25.9350    8.2920   44.1490 O.2   195  ASN195     -0.2716
     49  ND2       26.4570    6.1160   44.3800 N.am  195  ASN195     -0.0877
     50  N         22.7500    6.6800   44.1380 N.am  196  ASP196     -0.1960
     51  CA        21.6390    7.3740   44.7870 C.3   196  ASP196      0.1840
     52  C         21.6490    8.8980   44.5980 C.2   196  ASP196      0.2622
     53  O         20.5920    9.5080   44.4440 O.2   196  ASP196     -0.2715
     54  CB        21.5380    6.9970   46.2760 C.3   196  ASP196      0.1450
     55  CG        22.7690    7.3910   47.0770 C.2   196  ASP196      0.3671
     56  OD1       23.8230    7.6570   46.4710 O.co2 196  ASP196     -0.2456
     57  OD2       22.6850    7.4230   48.3210 O.co2 196  ASP196     -0.2456
     58  N         22.8320    9.5090   44.6010 N.am  197  THR197     -0.1951
     59  CA        22.9340   10.9560   44.4010 C.3   197  THR197      0.1897
     60  C         22.5720   11.3410   42.9710 C.2   197  THR197      0.2313
     61  O         22.0430   12.4240   42.7240 O.2   197  THR197     -0.2863
     62  CB        24.3380   11.5140   44.7360 C.3   197  THR197      0.1794
     63  OG1       25.3120   10.9450   43.8560 O.3   197  THR197     -0.2208
     64  CG2       24.7150   11.1990   46.1620 C.3   197  THR197      0.0378
     65  N         23.2830   14.1190   48.9940 N.3   216  ILE216     -0.1245
     66  CA        22.7950   13.2410   50.0470 C.3   216  ILE216      0.1561
     67  C         23.4860   13.5540   51.3650 C.2   216  ILE216      0.2260
     68  O         24.7000   13.3950   51.4990 O.2   216  ILE216     -0.2867
     69  CB        23.0260   11.7570   49.7140 C.3   216  ILE216      0.0252
     70  CG1       22.2880   11.3760   48.4300 C.3   216  ILE216      0.0019
     71  CG2       22.5630   10.8790   50.8690 C.3   216  ILE216      0.0019
     72  CD1       20.8090   11.1820   48.6180 C.3   216  ILE216      0.0001
     73  N         25.6790    8.3920   54.6600 N.3   220  GLY220     -0.1210
     74  CA        26.8650    8.7010   53.8900 C.3   220  GLY220      0.1956
     75  C         26.6310   10.0370   53.2190 C.2   220  GLY220      0.2612
     76  O         25.4950   10.4940   53.1340 O.2   220  GLY220     -0.2717
     77  N         27.6970   10.6790   52.7580 N.am  221  VAL221     -0.1965
     78  CA        27.5450   11.9410   52.0470 C.3   221  VAL221      0.1727
     79  C         28.1470   11.8530   50.6540 C.2   221  VAL221      0.2616
     80  O         29.1710   11.1960   50.4400 O.2   221  VAL221     -0.2715
     81  CB        28.1380   13.1480   52.8210 C.3   221  VAL221      0.0290
     82  CG1       27.4150   13.3360   54.1410 C.3   221  VAL221      0.0023
     83  CG2       29.6290   12.9730   53.0410 C.3   221  VAL221      0.0023
     84  N         27.4880   12.5210   49.7140 N.am  222  ASN222     -0.1972
     85  CA        27.8850   12.5040   48.3190 C.3   222  ASN222      0.1688
     86  C         27.0450   13.5150   47.5480 C.2   222  ASN222      0.2292
     87  O         26.0030   13.9570   48.0260 O.2   222  ASN222     -0.2864
     88  CB        27.6970   11.0990   47.7490 C.3   222  ASN222      0.1181
     89  CG        28.4180   10.8990   46.4350 C.2   222  ASN222      0.2629
     90  OD1       28.2260    9.8870   45.7640 O.2   222  ASN222     -0.2716
     91  ND2       29.2580   11.8590   46.0620 N.am  222  ASN222     -0.0877
     92  N         31.4800   11.2920   44.3050 N.3   254  GLU254     -0.1245
     93  CA        32.0670   10.4580   45.3510 C.3   254  GLU254      0.1567
     94  C         33.0510   11.2720   46.1750 C.2   254  GLU254      0.2260
     95  O         34.1550   10.8090   46.4730 O.2   254  GLU254     -0.2867
     96  CB        32.7700    9.2410   44.7540 C.3   254  GLU254      0.0388
     97  CG        31.8350    8.1140   44.3660 C.3   254  GLU254      0.1160
     98  CD        31.2070    7.4320   45.5690 C.2   254  GLU254      0.3649
     99  OE1       31.7530    7.5740   46.6800 O.co2 254  GLU254     -0.2457
    100  OE2       30.1710    6.7530   45.3990 O.co2 254  GLU254     -0.2457
    101  N         33.8780   12.5920   54.5740 N.3   287  GLU287     -0.1245
    102  CA        32.6830   11.8690   54.9940 C.3   287  GLU287      0.1567
    103  C         32.7090   11.5100   56.4820 C.2   287  GLU287      0.2260
    104  O         31.7000   11.6080   57.1720 O.2   287  GLU287     -0.2867
    105  CB        32.5150   10.6080   54.1490 C.3   287  GLU287      0.0388
    106  CG        31.2740    9.8240   54.4550 C.3   287  GLU287      0.1160
    107  CD        31.0520    8.7190   53.4590 C.2   287  GLU287      0.3649
    108  OE1       32.0370    8.2940   52.8230 O.co2 287  GLU287     -0.2457
    109  OE2       29.8960    8.2730   53.3050 O.co2 287  GLU287     -0.2457
@<TRIPOS>BOND
     1    42    43    1
     2    45    44    2
     3    43    46    1
     4    43    44    1
     5    46    47    1
     6    61    60    2
     7    44    50   am
     8    60    59    1
     9    47    48    2
    10    47    49   am
    11    63    62    1
    12    50    51    1
    13    92    93    1
    14    97    96    1
    15    97    98    1
    16    59    58    1
    17    59    62    1
    18    21    22    2
    19    21    20    1
    20    53    52    2
    21    52    58   am
    22    52    51    1
    23    62    64    1
    24    96    93    1
    25    51    54    1
    26    10     9    2
    27    93    94    1
    28   100    98   ar
    29    20    23    1
    30    20    19    1
    31    98    99   ar
    32    90    89    2
    33     1     2    1
    34    91    89   am
    35     9    19   am
    36     9     8    1
    37    94    95    2
    38    23    24    1
    39    54    55    1
    40    89    88    1
    41    19    25    1
    42     2     3    1
    43     2     5    1
    44    56    55   ar
    45     7     8    1
    46     7     3   am
    47    55    57   ar
    48     8    11    1
    49     3     4    2
    50     5     6    1
    51    86    87    2
    52    86    85    1
    53    24    25    1
    54    11    12    1
    55    88    85    1
    56    13    12   ar
    57    13    15   ar
    58    85    84    1
    59    70    72    1
    60    70    69    1
    61    12    14   ar
    62    15    17   ar
    63    65    66    1
    64    69    66    1
    65    69    71    1
    66    84    79   am
    67    14    16   ar
    68    66    67    1
    69    17    16   ar
    70    17    18    1
    71    80    79    2
    72    79    78    1
    73    41    40    1
    74    67    68    2
    75    31    30    1
    76    32    30    1
    77    78    77    1
    78    78    81    1
    79    26    27    1
    80    40    39    1
    81    30    27    1
    82    39    38    1
    83    77    75   am
    84    81    83    1
    85    81    82    1
    86   108   107   ar
    87    76    75    2
    88    75    74    1
    89    27    28    1
    90   109   107   ar
    91   107   106    1
    92    29    28    2
    93    74    73    1
    94    28    33   am
    95   105   106    1
    96   105   102    1
    97    38    37    1
    98   101   102    1
    99    37    34    1
   100    33    34    1
   101   102   103    1
   102    34    35    1
   103    35    36    2
   104   103   104    2
