@<TRIPOS>MOLECULE
tmp/3b8gA00.pdb
 175 170 0 0 0
SMALL
GASTEIGER

@<TRIPOS>ATOM
      1  N         46.5450    0.2060    6.4680 N.3   295  LEU295     -0.1245
      2  CA        45.7980   -0.5930    7.4160 C.3   295  LEU295      0.1561
      3  C         45.6950   -2.0200    6.8910 C.2   295  LEU295      0.2260
      4  O         45.9130   -3.0060    7.6230 O.2   295  LEU295     -0.2867
      5  CB        44.3910    0.0030    7.5590 C.3   295  LEU295      0.0270
      6  CG        44.3290    1.4320    8.1290 C.3   295  LEU295      0.0019
      7  CD1       42.9200    1.9640    8.1290 C.3   295  LEU295      0.0001
      8  CD2       44.9090    1.5260    9.5390 C.3   295  LEU295      0.0001
      9  N         44.6310   -5.1350    9.7140 N.3   300  ILE300     -0.1231
     10  CA        43.6220   -4.6080   10.6190 C.3   300  ILE300      0.1692
     11  C         42.3840   -4.6440    9.7460 C.2   300  ILE300      0.2591
     12  O         41.3030   -4.9710   10.2280 O.2   300  ILE300     -0.2718
     13  CB        43.9600   -3.1590   11.0710 C.3   300  ILE300      0.0266
     14  CG1       45.1820   -3.1350   12.0020 C.3   300  ILE300      0.0019
     15  CG2       42.7950   -2.4460   11.7890 C.3   300  ILE300      0.0020
     16  CD1       45.6920   -1.7000   12.3360 C.3   300  ILE300      0.0001
     17  N         42.6200   -4.6430    8.4370 N.am  301  LEU301     -0.1980
     18  CA        41.5420   -4.6400    7.4590 C.3   301  LEU301      0.1596
     19  C         41.7120   -5.7260    6.3910 C.2   301  LEU301      0.2287
     20  O         42.7950   -5.9010    5.8240 O.2   301  LEU301     -0.2864
     21  CB        41.5300   -3.3110    6.7220 C.3   301  LEU301      0.0297
     22  CG        41.2230   -1.9950    7.4200 C.3   301  LEU301      0.0022
     23  CD1       40.7350   -0.9780    6.3960 C.3   301  LEU301      0.0001
     24  CD2       40.2250   -2.1930    8.5570 C.3   301  LEU301      0.0001
     25  N         35.9110    0.1200    8.0520 N.3   345  LEU345     -0.1245
     26  CA        35.6880    1.3360    8.7920 C.3   345  LEU345      0.1561
     27  C         37.0790    1.9010    9.0860 C.2   345  LEU345      0.2260
     28  O         37.9310    1.2650    9.7250 O.2   345  LEU345     -0.2867
     29  CB        34.9460    1.0080   10.0930 C.3   345  LEU345      0.0270
     30  CG        34.8740    2.2160   11.0410 C.3   345  LEU345      0.0019
     31  CD1       34.0720    3.3280   10.3630 C.3   345  LEU345      0.0001
     32  CD2       34.2660    1.9280   12.4140 C.3   345  LEU345      0.0001
     33  N         39.3270    5.7700    9.7410 N.3   347  VAL347     -0.1245
     34  CA        39.5700    7.2140    9.7750 C.3   347  VAL347      0.1561
     35  C         41.0650    7.5520    9.7730 C.2   347  VAL347      0.2260
     36  O         41.8740    6.8550   10.4260 O.2   347  VAL347     -0.2867
     37  CB        38.9290    7.7260   11.0530 C.3   347  VAL347      0.0252
     38  CG1       38.8470    9.2420   11.0670 C.3   347  VAL347      0.0019
     39  CG2       37.5360    7.1250   11.1730 C.3   347  VAL347      0.0019
     40  N         41.7190   11.4970   13.6520 N.3   352  GLN352     -0.1231
     41  CA        41.1050   10.5740   14.5960 C.3   352  GLN352      0.1698
     42  C         40.6470   11.2940   15.8810 C.2   352  GLN352      0.2592
     43  O         41.0920   12.4180   16.1760 O.2   352  GLN352     -0.2718
     44  CB        42.1940    9.5730   14.9620 C.3   352  GLN352      0.0381
     45  CG        41.7570    8.1500   15.1530 C.3   352  GLN352      0.0905
     46  CD        42.7250    7.2520   14.4620 C.2   352  GLN352      0.2608
     47  OE1       42.7760    7.2800   13.2420 O.2   352  GLN352     -0.2717
     48  NE2       43.5780    6.5640   15.2080 N.am  352  GLN352     -0.0878
     49  N         39.8440   10.6050   16.6900 N.am  353  ASP353     -0.1974
     50  CA        39.5280   11.0440   18.0540 C.3   353  ASP353      0.1709
     51  C         38.5080   12.1560   18.2140 C.2   353  ASP353      0.2293
     52  O         38.1540   12.4910   19.3330 O.2   353  ASP353     -0.2864
     53  CB        40.7600   11.4180   18.8740 C.3   353  ASP353      0.1436
     54  CG        41.6230   10.2340   19.1690 C.2   353  ASP353      0.3671
     55  OD1       41.1070    9.1880   19.6140 O.co2 353  ASP353     -0.2456
     56  OD2       42.8000   10.3150   18.7750 O.co2 353  ASP353     -0.2456
     57  N         35.1940   11.7360   17.0470 N.3   355  GLY355     -0.1210
     58  CA        33.8860   11.2110   16.6770 C.3   355  GLY355      0.1956
     59  C         33.6320   10.9590   15.1880 C.2   355  GLY355      0.2612
     60  O         32.6300   10.3490   14.8030 O.2   355  GLY355     -0.2717
     61  N         34.5540   11.3240   14.3120 N.am  356  TYR356     -0.1962
     62  CA        34.4710   10.7140   13.0030 C.3   356  TYR356      0.1771
     63  C         34.0990    9.2080   12.9270 C.2   356  TYR356      0.2620
     64  O         33.1930    8.8150   12.1690 O.2   356  TYR356     -0.2715
     65  CB        35.7360   11.0120   12.1990 C.3   356  TYR356      0.0574
     66  CG        35.8930   12.4510   11.7480 C.ar  356  TYR356     -0.0198
     67  CD1       36.9190   12.8160   10.8910 C.ar  356  TYR356     -0.0009
     68  CD2       34.9580   13.4170   12.0730 C.ar  356  TYR356     -0.0009
     69  CE1       37.0230   14.1030   10.3930 C.ar  356  TYR356      0.0417
     70  CE2       35.0690   14.7170   11.5950 C.ar  356  TYR356      0.0417
     71  CZ        36.1050   15.0550   10.7590 C.ar  356  TYR356      0.1957
     72  OH        36.2590   16.3590   10.3380 O.3   356  TYR356     -0.2866
     73  N         34.7660    8.3240   13.6610 N.am  357  GLY357     -0.1940
     74  CA        34.3850    6.9220   13.4730 C.3   357  GLY357      0.2014
     75  C         32.9090    6.6750   13.7420 C.2   357  GLY357      0.2638
     76  O         32.0750    6.4990   12.8510 O.2   357  GLY357     -0.2714
     77  N         32.5320    6.8950   14.9880 N.am  358  GLU358     -0.1977
     78  CA        31.1170    7.0820   15.2940 C.3   358  GLU358      0.1602
     79  C         30.1520    7.6360   14.2400 C.2   358  GLU358      0.2287
     80  O         29.0850    7.0800   14.0190 O.2   358  GLU358     -0.2864
     81  CB        31.0030    7.9120   16.5460 C.3   358  GLU358      0.0415
     82  CG        29.8110    7.4650   17.3300 C.3   358  GLU358      0.1163
     83  CD        30.2560    6.9680   18.6740 C.2   358  GLU358      0.3649
     84  OE1       29.4390    7.1250   19.6000 O.co2 358  GLU358     -0.2457
     85  OE2       31.4310    6.5430   18.8110 O.co2 358  GLU358     -0.2457
     86  N         33.3510   -7.3700   12.3320 N.3   379  LEU379     -0.1231
     87  CA        34.3400   -8.3430   12.7410 C.3   379  LEU379      0.1693
     88  C         35.6440   -7.5830   12.8290 C.2   379  LEU379      0.2593
     89  O         35.8770   -6.6260   12.0990 O.2   379  LEU379     -0.2718
     90  CB        34.4570   -9.4850   11.7450 C.3   379  LEU379      0.0284
     91  CG        33.2540  -10.4060   11.6990 C.3   379  LEU379      0.0019
     92  CD1       32.0610   -9.6900   11.1180 C.3   379  LEU379      0.0001
     93  CD2       33.5460  -11.6220   10.8900 C.3   379  LEU379      0.0001
     94  N         36.5480   -8.0530   13.6680 N.am  380  SER380     -0.1938
     95  CA        37.6410   -7.1790   13.9680 C.3   380  SER380      0.2055
     96  C         38.6560   -7.9800   14.7470 C.2   380  SER380      0.2644
     97  O         38.3570   -8.9800   15.4010 O.2   380  SER380     -0.2714
     98  CB        37.1780   -5.9410   14.7520 C.3   380  SER380      0.2130
     99  OG        38.2560   -5.0570   15.0050 O.3   380  SER380     -0.2179
    100  N         39.8920   -7.6160   14.4610 N.am  381  THR381     -0.1936
    101  CA        40.9960   -8.3900   14.9160 C.3   381  THR381      0.2028
    102  C         41.6860   -7.6460   16.0750 C.2   381  THR381      0.2642
    103  O         42.1780   -8.2750   17.0270 O.2   381  THR381     -0.2714
    104  CB        41.8900   -8.6150   13.7000 C.3   381  THR381      0.1808
    105  OG1       42.5460   -9.8790   13.8540 O.3   381  THR381     -0.2208
    106  CG2       42.8720   -7.4410   13.5180 C.3   381  THR381      0.0379
    107  N         41.5870   -6.3130   16.0750 N.am  382  ASN382     -0.1957
    108  CA        42.3190   -5.4910   17.0390 C.3   382  ASN382      0.1819
    109  C         41.4510   -4.3660   17.5480 C.2   382  ASN382      0.2621
    110  O         41.9120   -3.5390   18.3170 O.2   382  ASN382     -0.2715
    111  CB        43.5710   -4.9050   16.3700 C.3   382  ASN382      0.1195
    112  CG        44.4810   -5.9830   15.7930 C.2   382  ASN382      0.2630
    113  OD1       44.8700   -6.9120   16.5020 O.2   382  ASN382     -0.2716
    114  ND2       44.6160   -5.9970   14.4730 N.am  382  ASN382     -0.0877
    115  N         40.2190   -4.3020   17.0640 N.am  383  THR383     -0.1951
    116  CA        39.3590   -3.1710   17.3640 C.3   383  THR383      0.1897
    117  C         38.0090   -3.5290   17.9940 C.2   383  THR383      0.2313
    118  O         37.1360   -2.6670   18.0050 O.2   383  THR383     -0.2863
    119  CB        39.0490   -2.3020   16.0990 C.3   383  THR383      0.1794
    120  OG1       40.1550   -2.3190   15.1790 O.3   383  THR383     -0.2208
    121  CG2       38.7470   -0.8420   16.4960 C.3   383  THR383      0.0378
    122  N         36.4920   -3.8840   20.9940 N.3   385  GLU385     -0.1231
    123  CA        35.8660   -3.0440   22.0260 C.3   385  GLU385      0.1699
    124  C         35.3100   -1.7440   21.4750 C.2   385  GLU385      0.2592
    125  O         34.2670   -1.3160   21.9520 O.2   385  GLU385     -0.2718
    126  CB        36.7860   -2.7540   23.2220 C.3   385  GLU385      0.0402
    127  CG        38.1100   -3.5010   23.1110 C.3   385  GLU385      0.1161
    128  CD        39.0600   -3.0220   21.9780 C.2   385  GLU385      0.3649
    129  OE1       39.3250   -3.7530   20.9840 O.co2 385  GLU385     -0.2457
    130  OE2       39.6710   -1.9350   22.1380 O.co2 385  GLU385     -0.2457
    131  N         35.9510   -1.1150   20.4870 N.am  386  TRP386     -0.1962
    132  CA        35.3210    0.0660   19.8980 C.3   386  TRP386      0.1771
    133  C         33.8450   -0.2650   19.6730 C.2   386  TRP386      0.2619
    134  O         32.9830    0.5730   19.9730 O.2   386  TRP386     -0.2715
    135  CB        35.9450    0.5050   18.5850 C.3   386  TRP386      0.0590
    136  CG        35.5810    1.9230   18.2190 C.ar  386  TRP386      0.0006
    137  CD1       36.2240    3.0510   18.6450 C.ar  386  TRP386      0.0946
    138  CD2       34.6160    2.3690   17.2310 C.ar  386  TRP386      0.0152
    139  NE1       35.6880    4.1680   18.0270 N.ar  386  TRP386     -0.2442
    140  CE2       34.7460    3.7690   17.1150 C.ar  386  TRP386      0.0810
    141  CE3       33.6770    1.7130   16.4170 C.ar  386  TRP386      0.0012
    142  CZ2       34.0000    4.5260   16.2050 C.ar  386  TRP386      0.0191
    143  CZ3       32.9210    2.4610   15.5290 C.ar  386  TRP386      0.0001
    144  CH2       33.0660    3.8650   15.4560 C.ar  386  TRP386      0.0015
    145  N         33.5360   -1.5100   19.3080 N.am  387  PHE387     -0.1974
    146  CA        32.1570   -1.8630   18.9970 C.3   387  PHE387      0.1639
    147  C         31.3920   -2.4010   20.2150 C.2   387  PHE387      0.2290
    148  O         30.1760   -2.1460   20.3900 O.2   387  PHE387     -0.2864
    149  CB        32.0940   -2.8970   17.8770 C.3   387  PHE387      0.0560
    150  CG        32.6400   -2.4290   16.5570 C.ar  387  PHE387     -0.0200
    151  CD1       33.8510   -2.9260   16.0940 C.ar  387  PHE387     -0.0042
    152  CD2       31.8410   -1.6930   15.6880 C.ar  387  PHE387     -0.0042
    153  CE1       34.3800   -2.4910   14.8670 C.ar  387  PHE387     -0.0003
    154  CE2       32.3150   -1.3150   14.4410 C.ar  387  PHE387     -0.0003
    155  CZ        33.6230   -1.6430   14.0600 C.ar  387  PHE387     -0.0000
    156  N         31.8320   -1.3350   23.1910 N.3   389  GLU389     -0.1231
    157  CA        31.5880   -0.0930   23.9020 C.3   389  GLU389      0.1699
    158  C         30.4370    0.6820   23.2520 C.2   389  GLU389      0.2592
    159  O         29.9690    1.6860   23.7930 O.2   389  GLU389     -0.2718
    160  CB        32.8600    0.7530   23.7560 C.3   389  GLU389      0.0402
    161  CG        33.4010    1.3810   25.0250 C.3   389  GLU389      0.1161
    162  CD        34.9230    1.3140   25.1620 C.2   389  GLU389      0.3649
    163  OE1       35.5930    2.3560   24.8980 O.co2 389  GLU389     -0.2457
    164  OE2       35.4200    0.2550   25.6330 O.co2 389  GLU389     -0.2457
    165  N         30.1570    0.3920   21.9870 N.am  390  ARG390     -0.1980
    166  CA        29.2720    1.2600   21.2090 C.3   390  ARG390      0.1597
    167  C         28.1390    0.3660   20.7150 C.2   390  ARG390      0.2287
    168  O         27.6150    0.5290   19.6190 O.2   390  ARG390     -0.2864
    169  CB        30.0200    1.8820   20.0180 C.3   390  ARG390      0.0334
    170  CG        30.2760    3.3780   20.0610 C.3   390  ARG390      0.0492
    171  CD        31.5710    3.7720   19.2880 C.3   390  ARG390      0.2205
    172  NE        32.7060    3.2160   19.9990 N.pl3 390  ARG390     -0.0865
    173  CZ        33.5560    3.9380   20.7120 C.cat 390  ARG390      0.5346
    174  NH1       33.5490    5.2490   20.5280 N.pl3 390  ARG390      0.1354
    175  NH2       34.4700    3.3470   21.4840 N.pl3 390  ARG390      0.1354
@<TRIPOS>BOND
     1    20    19    2
     2    19    18    1
     3    23    22    1
     4     1     2    1
     5    21    22    1
     6    21    18    1
     7     3     2    1
     8     3     4    2
     9     2     5    1
    10    22    24    1
    11    18    17    1
    12     5     6    1
    13    25    26    1
    14     7     6    1
    15     6     8    1
    16    17    11   am
    17    26    27    1
    18    26    29    1
    19    27    28    2
    20     9    10    1
    21    33    34    1
    22    11    12    2
    23    11    10    1
    24    35    34    1
    25    35    36    2
    26    34    37    1
    27    29    30    1
    28    72    71    1
    29    31    30    1
    30    69    71   ar
    31    69    67   ar
    32    10    13    1
    33    71    70   ar
    34    93    91    1
    35    67    66   ar
    36    30    32    1
    37    37    38    1
    38    37    39    1
    39    13    15    1
    40    13    14    1
    41    92    91    1
    42    70    68   ar
    43    91    90    1
    44    90    87    1
    45    66    68   ar
    46    66    65    1
    47    14    16    1
    48    89    88    2
    49    64    63    2
    50    65    62    1
    51    86    87    1
    52    87    88    1
    53    88    94   am
    54    76    75    2
    55    63    62    1
    56    63    73   am
    57    62    61    1
    58    47    46    2
    59    74    73    1
    60    74    75    1
    61   106   104    1
    62    40    41    1
    63    94    95    1
    64   104   105    1
    65   104   101    1
    66    75    77   am
    67    95    96    1
    68    95    98    1
    69    80    79    2
    70   155   154   ar
    71   155   153   ar
    72    79    78    1
    73    61    59   am
    74   154   152   ar
    75   100    96   am
    76   100   101    1
    77    46    45    1
    78    46    48   am
    79   114   112   am
    80    41    44    1
    81    41    42    1
    82    96    97    2
    83    98    99    1
    84    60    59    2
    85   153   151   ar
    86   101   102    1
    87    44    45    1
    88    77    78    1
    89   120   119    1
    90    59    58    1
    91    78    81    1
    92   144   143   ar
    93   144   142   ar
    94   143   141   ar
    95   152   150   ar
    96   112   111    1
    97   112   113    2
    98    42    43    2
    99    42    49   am
   100   102   107   am
   101   102   103    2
   102   107   108    1
   103   151   150   ar
   104   119   121    1
   105   119   116    1
   106   142   140   ar
   107   111   108    1
   108   141   138   ar
   109    81    82    1
   110   150   149    1
   111    58    57    1
   112    49    50    1
   113   108   109    1
   114   115   116    1
   115   115   109   am
   116   140   138   ar
   117   140   139   ar
   118   138   136   ar
   119    82    83    1
   120   116   117    1
   121   109   110    2
   122   149   146    1
   123   117   118    2
   124   139   137   ar
   125    50    51    1
   126    50    53    1
   127    51    52    2
   128   136   135    1
   129   136   137   ar
   130   135   132    1
   131    83    85   ar
   132    83    84   ar
   133    56    54   ar
   134    53    54    1
   135   146   145    1
   136   146   147    1
   137    54    55   ar
   138   171   172    1
   139   171   170    1
   140   145   133   am
   141   168   167    2
   142   133   132    1
   143   133   134    2
   144   132   131    1
   145   172   173    2
   146   169   170    1
   147   169   166    1
   148   147   148    2
   149   131   124   am
   150   174   173    1
   151   173   175    1
   152   167   166    1
   153   129   128   ar
   154   122   123    1
   155   166   165    1
   156   124   125    2
   157   124   123    1
   158   128   130   ar
   159   128   127    1
   160   165   158   am
   161   123   126    1
   162   127   126    1
   163   156   157    1
   164   158   159    2
   165   158   157    1
   166   160   157    1
   167   160   161    1
   168   163   162   ar
   169   161   162    1
   170   162   164   ar
