@<TRIPOS>MOLECULE
tmp/3b8gA01.pdb
 144 136 0 0 0
SMALL
GASTEIGER

@<TRIPOS>ATOM
      1  N         44.6310   -5.1350    9.7140 N.3   300  ILE300     -0.1231
      2  CA        43.6220   -4.6080   10.6190 C.3   300  ILE300      0.1692
      3  C         42.3840   -4.6440    9.7460 C.2   300  ILE300      0.2592
      4  O         41.3030   -4.9710   10.2280 O.2   300  ILE300     -0.2718
      5  CB        43.9600   -3.1590   11.0710 C.3   300  ILE300      0.0266
      6  CG1       45.1820   -3.1350   12.0020 C.3   300  ILE300      0.0019
      7  CG2       42.7950   -2.4460   11.7890 C.3   300  ILE300      0.0020
      8  CD1       45.6920   -1.7000   12.3360 C.3   300  ILE300      0.0001
      9  N         42.6200   -4.6430    8.4370 N.am  301  LEU301     -0.1966
     10  CA        41.5420   -4.6400    7.4590 C.3   301  LEU301      0.1728
     11  C         41.7120   -5.7260    6.3910 C.2   301  LEU301      0.2616
     12  O         42.7950   -5.9010    5.8240 O.2   301  LEU301     -0.2715
     13  CB        41.5300   -3.3110    6.7220 C.3   301  LEU301      0.0311
     14  CG        41.2230   -1.9950    7.4200 C.3   301  LEU301      0.0022
     15  CD1       40.7350   -0.9780    6.3960 C.3   301  LEU301      0.0001
     16  CD2       40.2250   -2.1930    8.5570 C.3   301  LEU301      0.0001
     17  N         40.6090   -6.3510    5.9990 N.am  302  LEU302     -0.1977
     18  CA        40.6940   -7.3250    4.9200 C.3   302  LEU302      0.1596
     19  C         41.3040   -6.5740    3.7640 C.2   302  LEU302      0.2287
     20  O         41.1370   -5.3520    3.6460 O.2   302  LEU302     -0.2864
     21  CB        39.3210   -7.8400    4.4770 C.3   302  LEU302      0.0297
     22  CG        38.6930   -8.6700    5.5940 C.3   302  LEU302      0.0022
     23  CD1       37.3000   -9.1380    5.1560 C.3   302  LEU302      0.0001
     24  CD2       39.6760   -9.7530    6.1370 C.3   302  LEU302      0.0001
     25  N         41.5760   -5.3880    0.2100 N.3   304  ARG304     -0.1245
     26  CA        40.8490   -5.0550   -1.0080 C.3   304  ARG304      0.1563
     27  C         41.6610   -4.8490   -2.3170 C.2   304  ARG304      0.2260
     28  O         42.7250   -5.4720   -2.5350 O.2   304  ARG304     -0.2867
     29  CB        39.8690   -3.9220   -0.7470 C.3   304  ARG304      0.0307
     30  CG        38.6610   -4.4360   -0.0440 C.3   304  ARG304      0.0489
     31  CD        38.2810   -3.4550    1.0550 C.3   304  ARG304      0.2205
     32  NE        37.0650   -3.8630    1.7690 N.pl3 304  ARG304     -0.0865
     33  CZ        37.0200   -4.2320    3.0500 C.cat 304  ARG304      0.5346
     34  NH1       38.0960   -4.1550    3.8230 N.pl3 304  ARG304      0.1354
     35  NH2       35.8950   -4.7130    3.5670 N.pl3 304  ARG304      0.1354
     36  N         26.4700   -5.9680    7.4870 N.3   341  GLU341     -0.1231
     37  CA        27.7520   -5.8310    8.1370 C.3   341  GLU341      0.1699
     38  C         28.3880   -4.4480    7.9520 C.2   341  GLU341      0.2592
     39  O         28.4630   -3.8730    6.8630 O.2   341  GLU341     -0.2718
     40  CB        28.6390   -6.9490    7.6310 C.3   341  GLU341      0.0402
     41  CG        29.8450   -7.1840    8.4730 C.3   341  GLU341      0.1161
     42  CD        30.8600   -8.0210    7.7320 C.2   341  GLU341      0.3649
     43  OE1       30.4630   -8.9560    7.0300 O.co2 341  GLU341     -0.2457
     44  OE2       32.0760   -7.8020    7.8360 O.co2 341  GLU341     -0.2457
     45  N         28.9110   -3.9010    9.0320 N.am  342  ILE342     -0.1966
     46  CA        29.7580   -2.7430    8.8740 C.3   342  ILE342      0.1727
     47  C         31.1120   -3.2600    8.4080 C.2   342  ILE342      0.2616
     48  O         31.6720   -4.2020    8.9960 O.2   342  ILE342     -0.2715
     49  CB        29.8470   -1.9420   10.1910 C.3   342  ILE342      0.0290
     50  CG1       30.9310   -0.8810   10.0870 C.3   342  ILE342      0.0022
     51  CG2       30.0320   -2.8510   11.3960 C.3   342  ILE342      0.0023
     52  CD1       30.4440    0.5200    9.7900 C.3   342  ILE342      0.0001
     53  N         31.5260   -2.7990    7.2300 N.am  343  ALA343     -0.1963
     54  CA        32.8390   -3.2010    6.7480 C.3   343  ALA343      0.1728
     55  C         33.7220   -2.0220    6.4010 C.2   343  ALA343      0.2616
     56  O         33.2150   -0.9580    6.0370 O.2   343  ALA343     -0.2715
     57  CB        32.7050   -4.1090    5.5460 C.3   343  ALA343      0.0334
     58  N         35.0320   -2.2370    6.5060 N.am  344  CYS344     -0.1954
     59  CA        36.0290   -1.2710    6.0240 C.3   344  CYS344      0.1843
     60  C         35.9610    0.1150    6.7240 C.2   344  CYS344      0.2625
     61  O         35.8870    1.1700    6.0930 O.2   344  CYS344     -0.2714
     62  CB        35.8410   -1.1000    4.5160 C.3   344  CYS344      0.0997
     63  SG        37.3710   -0.6000    3.6620 S.3   344  CYS344     -0.0797
     64  N         35.9110    0.1200    8.0520 N.am  345  LEU345     -0.1977
     65  CA        35.6880    1.3360    8.7920 C.3   345  LEU345      0.1596
     66  C         37.0790    1.9010    9.0860 C.2   345  LEU345      0.2287
     67  O         37.9310    1.2650    9.7250 O.2   345  LEU345     -0.2864
     68  CB        34.9460    1.0080   10.0930 C.3   345  LEU345      0.0297
     69  CG        34.8740    2.2160   11.0410 C.3   345  LEU345      0.0022
     70  CD1       34.0720    3.3280   10.3630 C.3   345  LEU345      0.0001
     71  CD2       34.2660    1.9280   12.4140 C.3   345  LEU345      0.0001
     72  N         29.9720   -6.8490   13.0040 N.3   378  ALA378     -0.1231
     73  CA        31.2620   -6.1520   12.7810 C.3   378  ALA378      0.1694
     74  C         32.4020   -7.0730   13.2130 C.2   378  ALA378      0.2592
     75  O         32.3010   -7.6880   14.2720 O.2   378  ALA378     -0.2718
     76  CB        31.3400   -4.8000   13.5640 C.3   378  ALA378      0.0304
     77  N         33.3510   -7.3700   12.3320 N.am  379  LEU379     -0.1966
     78  CA        34.3400   -8.3430   12.7410 C.3   379  LEU379      0.1728
     79  C         35.6440   -7.5830   12.8290 C.2   379  LEU379      0.2617
     80  O         35.8770   -6.6260   12.0990 O.2   379  LEU379     -0.2715
     81  CB        34.4570   -9.4850   11.7450 C.3   379  LEU379      0.0311
     82  CG        33.2540  -10.4060   11.6990 C.3   379  LEU379      0.0022
     83  CD1       32.0610   -9.6900   11.1180 C.3   379  LEU379      0.0001
     84  CD2       33.5460  -11.6220   10.8900 C.3   379  LEU379      0.0001
     85  N         36.5480   -8.0530   13.6680 N.am  380  SER380     -0.1936
     86  CA        37.6410   -7.1790   13.9680 C.3   380  SER380      0.2055
     87  C         38.6560   -7.9800   14.7470 C.2   380  SER380      0.2643
     88  O         38.3570   -8.9800   15.4010 O.2   380  SER380     -0.2714
     89  CB        37.1780   -5.9410   14.7520 C.3   380  SER380      0.2130
     90  OG        38.2560   -5.0570   15.0050 O.3   380  SER380     -0.2179
     91  N         39.8920   -7.6160   14.4610 N.am  381  THR381     -0.1950
     92  CA        40.9960   -8.3900   14.9160 C.3   381  THR381      0.1897
     93  C         41.6860   -7.6460   16.0750 C.2   381  THR381      0.2313
     94  O         42.1780   -8.2750   17.0270 O.2   381  THR381     -0.2863
     95  CB        41.8900   -8.6150   13.7000 C.3   381  THR381      0.1794
     96  OG1       42.5460   -9.8790   13.8540 O.3   381  THR381     -0.2208
     97  CG2       42.8720   -7.4410   13.5180 C.3   381  THR381      0.0378
     98  N         33.5360   -1.5100   19.3080 N.3   387  PHE387     -0.1241
     99  CA        32.1570   -1.8630   18.9970 C.3   387  PHE387      0.1605
    100  C         31.3920   -2.4010   20.2150 C.2   387  PHE387      0.2264
    101  O         30.1760   -2.1460   20.3900 O.2   387  PHE387     -0.2867
    102  CB        32.0940   -2.8970   17.8770 C.3   387  PHE387      0.0534
    103  CG        32.6400   -2.4290   16.5570 C.ar  387  PHE387     -0.0203
    104  CD1       33.8510   -2.9260   16.0940 C.ar  387  PHE387     -0.0042
    105  CD2       31.8410   -1.6930   15.6880 C.ar  387  PHE387     -0.0042
    106  CE1       34.3800   -2.4910   14.8670 C.ar  387  PHE387     -0.0003
    107  CE2       32.3150   -1.3150   14.4410 C.ar  387  PHE387     -0.0003
    108  CZ        33.6230   -1.6430   14.0600 C.ar  387  PHE387     -0.0000
    109  N         29.1760  -15.5070    5.0570 N.3   404  ARG404     -0.1245
    110  CA        30.2190  -14.8130    5.8180 C.3   404  ARG404      0.1563
    111  C         30.9240  -15.7700    6.7790 C.2   404  ARG404      0.2260
    112  O         31.9980  -15.4840    7.2930 O.2   404  ARG404     -0.2867
    113  CB        29.6320  -13.6110    6.5580 C.3   404  ARG404      0.0307
    114  CG        30.7020  -12.7430    7.1630 C.3   404  ARG404      0.0489
    115  CD        31.7040  -12.3020    6.1090 C.3   404  ARG404      0.2205
    116  NE        32.3550  -11.0550    6.5140 N.pl3 404  ARG404     -0.0865
    117  CZ        33.5030  -11.0260    7.1780 C.cat 404  ARG404      0.5346
    118  NH1       34.1900  -12.1530    7.4040 N.pl3 404  ARG404      0.1354
    119  NH2       33.8900   -9.8790    7.6930 N.pl3 404  ARG404      0.1354
    120  N         39.4670  -17.4770    6.0380 N.3   411  ASN411     -0.1240
    121  CA        40.3200  -16.3350    6.3480 C.3   411  ASN411      0.1653
    122  C         41.6460  -16.7190    6.9850 C.2   411  ASN411      0.2266
    123  O         42.6680  -16.1250    6.6730 O.2   411  ASN411     -0.2867
    124  CB        39.6250  -15.4570    7.4030 C.3   411  ASN411      0.1155
    125  CG        39.0520  -14.2100    6.7920 C.2   411  ASN411      0.2627
    126  OD1       38.0270  -13.6840    7.2300 O.2   411  ASN411     -0.2716
    127  ND2       39.5910  -13.8640    5.6320 N.am  411  ASN411     -0.0877
    128  N         41.9610  -15.4640   10.0140 N.3   413  ARG413     -0.1245
    129  CA        42.1710  -14.2760   10.8780 C.3   413  ARG413      0.1563
    130  C         41.6300  -14.4110   12.2780 C.2   413  ARG413      0.2260
    131  O         41.9110  -13.5380   13.0700 O.2   413  ARG413     -0.2867
    132  CB        41.5650  -12.9730   10.3480 C.3   413  ARG413      0.0307
    133  CG        41.9050  -12.7300    8.9170 C.3   413  ARG413      0.0489
    134  CD        41.2680  -11.4400    8.5310 C.3   413  ARG413      0.2205
    135  NE        42.1250  -10.3560    8.9950 N.pl3 413  ARG413     -0.0865
    136  CZ        41.6720   -9.1360    9.2380 C.cat 413  ARG413      0.5346
    137  NH1       40.4040   -8.8660    8.9730 N.pl3 413  ARG413      0.1354
    138  NH2       42.5000   -8.1830    9.6030 N.pl3 413  ARG413      0.1354
    139  N         39.1180  -13.1100   13.4280 N.3   415  SER415     -0.1217
    140  CA        38.4790  -11.8770   13.8590 C.3   415  SER415      0.1889
    141  C         37.5400  -12.1950   14.9880 C.2   415  SER415      0.2288
    142  O         36.9100  -13.2690   15.0290 O.2   415  SER415     -0.2866
    143  CB        37.7160  -11.2590   12.6910 C.3   415  SER415      0.2089
    144  OG        38.5970  -11.3040   11.5790 O.3   415  SER415     -0.2183
@<TRIPOS>BOND
     1    28    27    2
     2    27    26    1
     3    26    29    1
     4    26    25    1
     5    29    30    1
     6    30    31    1
     7    31    32    1
     8    32    33    2
     9    33    35    1
    10    33    34    1
    11    20    19    2
    12    63    62    1
    13    19    18    1
    14    21    18    1
    15    21    22    1
    16    62    59    1
    17    18    17    1
    18   109   110    1
    19    23    22    1
    20    57    54    1
    21    22    24    1
    22   127   125   am
    23   110   113    1
    24   110   111    1
    25    12    11    2
    26    17    11   am
    27    59    58    1
    28    59    60    1
    29    56    55    2
    30   120   121    1
    31    61    60    2
    32   115   116    1
    33   115   114    1
    34   121   122    1
    35   121   124    1
    36    11    10    1
    37    15    14    1
    38    55    58   am
    39    55    54    1
    40   116   117    2
    41   113   114    1
    42   123   122    2
    43    13    14    1
    44    13    10    1
    45    60    64   am
    46    54    53    1
    47   111   112    2
    48   125   126    2
    49   125   124    1
    50    39    38    2
    51    43    42   ar
    52   117   118    1
    53   117   119    1
    54    53    47   am
    55    14    16    1
    56    10     9    1
    57    36    37    1
    58    40    37    1
    59    40    41    1
    60    42    44   ar
    61    42    41    1
    62    38    37    1
    63    38    45   am
    64    64    65    1
    65    47    46    1
    66    47    48    2
    67     9     3   am
    68   134   133    1
    69   134   135    1
    70    65    66    1
    71    65    68    1
    72    46    45    1
    73    46    49    1
    74   133   132    1
    75   137   136    1
    76   135   136    2
    77    66    67    2
    78   136   138    1
    79     1     2    1
    80     3     4    2
    81     3     2    1
    82    52    50    1
    83   128   129    1
    84    50    49    1
    85    68    69    1
    86    49    51    1
    87   132   129    1
    88    70    69    1
    89     2     5    1
    90   129   130    1
    91    84    82    1
    92    69    71    1
    93     5     7    1
    94     5     6    1
    95    83    82    1
    96   144   143    1
    97    82    81    1
    98    81    78    1
    99     6     8    1
   100    80    79    2
   101   130   131    2
   102    77    78    1
   103    77    74   am
   104   143   140    1
   105    78    79    1
   106    73    72    1
   107    73    74    1
   108    73    76    1
   109    79    85   am
   110    74    75    2
   111   139   140    1
   112    97    95    1
   113    85    86    1
   114    95    96    1
   115    95    92    1
   116   140   141    1
   117    86    87    1
   118    86    89    1
   119   108   107   ar
   120   108   106   ar
   121   107   105   ar
   122    91    87   am
   123    91    92    1
   124    87    88    2
   125    89    90    1
   126   106   104   ar
   127    92    93    1
   128   141   142    2
   129   105   103   ar
   130    93    94    2
   131   104   103   ar
   132   103   102    1
   133   102    99    1
   134    99    98    1
   135    99   100    1
   136   100   101    2
