@<TRIPOS>MOLECULE
tmp/3b8qA00.pdb
 225 215 0 0 0
SMALL
GASTEIGER

@<TRIPOS>ATOM
      1  N         36.8620   23.8830   19.7240 N.3    23  LEU23      -0.1231
      2  CA        38.2510   24.1970   19.4530 C.3    23  LEU23       0.1693
      3  C         38.7220   25.1720   20.5240 C.2    23  LEU23       0.2592
      4  O         39.8060   25.0230   21.0840 O.2    23  LEU23      -0.2718
      5  CB        38.3990   24.7890   18.0460 C.3    23  LEU23       0.0284
      6  CG        38.3480   23.7790   16.8850 C.3    23  LEU23       0.0019
      7  CD1       38.3140   24.4900   15.5280 C.3    23  LEU23       0.0001
      8  CD2       39.5570   22.8720   16.9800 C.3    23  LEU23       0.0001
      9  N         37.8850   26.1550   20.8290 N.am   24  GLY24      -0.1957
     10  CA        38.2330   27.1380   21.8390 C.3    24  GLY24       0.1869
     11  C         36.9940   27.8410   22.3600 C.2    24  GLY24       0.2309
     12  O         36.0950   28.1760   21.5830 O.2    24  GLY24      -0.2863
     13  N         34.3700   28.6200   19.4900 N.3    31  VAL31      -0.1245
     14  CA        34.5910   28.1750   18.1330 C.3    31  VAL31       0.1561
     15  C         34.5150   26.6540   18.1890 C.2    31  VAL31       0.2260
     16  O         35.0360   26.0400   19.1210 O.2    31  VAL31      -0.2867
     17  CB        35.9620   28.6220   17.6050 C.3    31  VAL31       0.0252
     18  CG1       36.1460   28.1180   16.1950 C.3    31  VAL31       0.0019
     19  CG2       36.0640   30.1340   17.6190 C.3    31  VAL31       0.0019
     20  N         35.2460   25.7350   10.6900 N.3    49  ALA49      -0.1245
     21  CA        35.3210   26.2680   12.0450 C.3    49  ALA49       0.1562
     22  C         34.0960   27.1390   12.1950 C.2    49  ALA49       0.2260
     23  O         33.8600   28.0460   11.3970 O.2    49  ALA49      -0.2867
     24  CB        36.5800   27.0960   12.2370 C.3    49  ALA49       0.0290
     25  N         31.8020   29.7200   14.6150 N.3    51  LYS51      -0.1245
     26  CA        31.7620   30.5890   15.7850 C.3    51  LYS51       0.1561
     27  C         30.3130   30.9000   16.1260 C.2    51  LYS51       0.2260
     28  O         29.5960   31.5130   15.3390 O.2    51  LYS51      -0.2867
     29  CB        32.5060   31.8940   15.5360 C.3    51  LYS51       0.0271
     30  CG        32.3990   32.8630   16.7020 C.3    51  LYS51       0.0035
     31  CD        33.1330   34.1780   16.4640 C.3    51  LYS51       0.0206
     32  CE        34.6300   33.9880   16.3020 C.3    51  LYS51       0.1093
     33  NZ        35.3250   35.2950   16.4690 N.3    51  LYS51      -0.1314
     34  N         30.2450   41.1920   13.3330 N.3    68  GLU68      -0.1245
     35  CA        31.4930   40.5530   12.9390 C.3    68  GLU68       0.1567
     36  C         31.2340   39.9330   11.5680 C.2    68  GLU68       0.2260
     37  O         32.0380   40.0740   10.6480 O.2    68  GLU68      -0.2867
     38  CB        31.8530   39.4590   13.9400 C.3    68  GLU68       0.0388
     39  CG        33.2390   38.8820   13.8030 C.3    68  GLU68       0.1160
     40  CD        33.5160   37.8610   14.8830 C.2    68  GLU68       0.3649
     41  OE1       33.2790   38.1740   16.0720 O.co2  68  GLU68      -0.2457
     42  OE2       33.9680   36.7480   14.5470 O.co2  68  GLU68      -0.2457
     43  N         30.9090   42.4550    8.7780 N.3    71  ILE71      -0.1231
     44  CA        32.2270   43.0300    8.5570 C.3    71  ILE71       0.1692
     45  C         33.0280   42.1120    7.6620 C.2    71  ILE71       0.2591
     46  O         33.6820   42.5550    6.7160 O.2    71  ILE71      -0.2718
     47  CB        32.9810   43.2360    9.8770 C.3    71  ILE71       0.0266
     48  CG1       32.4310   44.4730   10.5850 C.3    71  ILE71       0.0019
     49  CG2       34.4630   43.3980    9.6250 C.3    71  ILE71       0.0020
     50  CD1       33.1000   44.7700   11.9120 C.3    71  ILE71       0.0001
     51  N         32.9800   40.8230    7.9640 N.am   72  LEU72      -0.1980
     52  CA        33.6950   39.8470    7.1660 C.3    72  LEU72       0.1596
     53  C         33.1510   39.8650    5.7300 C.2    72  LEU72       0.2287
     54  O         33.9120   39.7970    4.7520 O.2    72  LEU72      -0.2864
     55  CB        33.5530   38.4700    7.8050 C.3    72  LEU72       0.0297
     56  CG        34.6090   38.1780    8.8700 C.3    72  LEU72       0.0022
     57  CD1       34.2720   36.9070    9.6170 C.3    72  LEU72       0.0001
     58  CD2       35.9570   38.0360    8.2040 C.3    72  LEU72       0.0001
     59  N         34.5280   43.1560    4.3420 N.3    75  ILE75      -0.1245
     60  CA        35.9600   43.0680    4.0760 C.3    75  ILE75       0.1561
     61  C         36.2740   42.4110    2.7350 C.2    75  ILE75       0.2260
     62  O         37.1200   42.8800    1.9900 O.2    75  ILE75      -0.2867
     63  CB        36.6620   42.2960    5.1950 C.3    75  ILE75       0.0252
     64  CG1       36.7730   43.1860    6.4270 C.3    75  ILE75       0.0019
     65  CG2       38.0260   41.8370    4.7440 C.3    75  ILE75       0.0019
     66  CD1       37.4220   42.5110    7.6030 C.3    75  ILE75       0.0001
     67  N         43.4940   36.2480    4.9750 N.3    81  VAL81      -0.1231
     68  CA        42.5290   36.5770    6.0250 C.3    81  VAL81       0.1692
     69  C         41.5640   35.4070    6.0530 C.2    81  VAL81       0.2591
     70  O         40.9530   35.0770    5.0340 O.2    81  VAL81      -0.2718
     71  CB        41.7370   37.8740    5.7300 C.3    81  VAL81       0.0266
     72  CG1       40.6430   38.0610    6.7700 C.3    81  VAL81       0.0020
     73  CG2       42.6670   39.0690    5.7510 C.3    81  VAL81       0.0020
     74  N         41.4280   34.7810    7.2130 N.am   82  VAL82      -0.1980
     75  CA        40.5690   33.6130    7.3320 C.3    82  VAL82       0.1595
     76  C         39.2790   33.7820    6.5210 C.2    82  VAL82       0.2287
     77  O         38.5340   34.7450    6.7100 O.2    82  VAL82      -0.2864
     78  CB        40.2720   33.3370    8.8020 C.3    82  VAL82       0.0276
     79  CG1       39.4390   34.4610    9.3630 C.3    82  VAL82       0.0022
     80  CG2       39.6250   31.9790    8.9560 C.3    82  VAL82       0.0022
     81  N         28.6610   31.6660   12.6320 N.3    97  VAL97      -0.1245
     82  CA        29.4820   32.2020   11.5520 C.3    97  VAL97       0.1561
     83  C         30.5140   31.1400   11.1910 C.2    97  VAL97       0.2260
     84  O         31.3200   30.7250   12.0250 O.2    97  VAL97      -0.2867
     85  CB        30.1900   33.5090   11.9490 C.3    97  VAL97       0.0252
     86  CG1       31.1170   33.9400   10.8320 C.3    97  VAL97       0.0019
     87  CG2       29.1600   34.6100   12.2120 C.3    97  VAL97       0.0019
     88  N         33.7010   29.5280    8.8890 N.3    99  THR99      -0.1203
     89  CA        34.8920   29.8470    8.1150 C.3    99  THR99       0.1994
     90  C         35.6400   28.5780    7.7620 C.2    99  THR99       0.2618
     91  O         35.3440   27.4870    8.2630 O.2    99  THR99      -0.2717
     92  CB        35.9040   30.7160    8.8940 C.3    99  THR99       0.1784
     93  OG1       36.5760   29.8970    9.8630 O.3    99  THR99      -0.2211
     94  CG2       35.2140   31.8930    9.5790 C.3    99  THR99       0.0376
     95  N         36.6330   28.7380    6.9020 N.am  100  GLU100     -0.1965
     96  CA        37.4630   27.6220    6.5140 C.3   100  GLU100      0.1733
     97  C         38.1440   27.0960    7.7740 C.2   100  GLU100      0.2616
     98  O         38.1440   27.7460    8.8200 O.2   100  GLU100     -0.2715
     99  CB        38.5200   28.0890    5.5190 C.3   100  GLU100      0.0429
    100  CG        39.4000   29.2170    6.0460 C.3   100  GLU100      0.1163
    101  CD        40.3800   29.7220    5.0040 C.2   100  GLU100      0.3649
    102  OE1       41.0410   28.8900    4.3400 O.co2 100  GLU100     -0.2457
    103  OE2       40.4950   30.9540    4.8560 O.co2 100  GLU100     -0.2457
    104  N         38.7270   25.9150    7.6630 N.am  101  PHE101     -0.1960
    105  CA        39.4160   25.3050    8.7780 C.3   101  PHE101      0.1771
    106  C         40.9010   25.3460    8.4580 C.2   101  PHE101      0.2620
    107  O         41.2960   25.1610    7.3060 O.2   101  PHE101     -0.2715
    108  CB        38.9560   23.8650    8.9320 C.3   101  PHE101      0.0574
    109  CG        39.5350   23.1800   10.1130 C.ar  101  PHE101     -0.0200
    110  CD1       39.1560   23.5480   11.3930 C.ar  101  PHE101     -0.0042
    111  CD2       40.4700   22.1720    9.9560 C.ar  101  PHE101     -0.0042
    112  CE1       39.6960   22.9250   12.5000 C.ar  101  PHE101     -0.0003
    113  CE2       41.0110   21.5470   11.0580 C.ar  101  PHE101     -0.0003
    114  CZ        40.6210   21.9290   12.3320 C.ar  101  PHE101     -0.0000
    115  N         41.7160   25.6150    9.4700 N.am  102  CYS102     -0.1954
    116  CA        43.1720   25.6780    9.3220 C.3   102  CYS102      0.1843
    117  C         43.6640   24.6360   10.3080 C.2   102  CYS102      0.2625
    118  O         43.7210   24.8960   11.5100 O.2   102  CYS102     -0.2714
    119  CB        43.6880   27.0650    9.7250 C.3   102  CYS102      0.0997
    120  SG        43.0280   28.4350    8.7470 S.3   102  CYS102     -0.0797
    121  N         44.0350   23.4620    9.8170 N.am  103  LYS103     -0.1963
    122  CA        44.4280   22.3980   10.7360 C.3   103  LYS103      0.1728
    123  C         45.5860   22.6200   11.6820 C.2   103  LYS103      0.2616
    124  O         45.5910   22.0780   12.7810 O.2   103  LYS103     -0.2715
    125  CB        44.6360   21.0770    9.9880 C.3   103  LYS103      0.0311
    126  CG        45.8140   20.9810    9.0460 C.3   103  LYS103      0.0038
    127  CD        45.8000   19.5630    8.4650 C.3   103  LYS103      0.0206
    128  CE        46.9340   19.2770    7.4920 C.3   103  LYS103      0.1093
    129  NZ        46.8570   17.8740    6.9780 N.3   103  LYS103     -0.1314
    130  N         46.5600   23.4250   11.2970 N.am  104  PHE104     -0.1960
    131  CA        47.6900   23.6120   12.1880 C.3   104  PHE104      0.1771
    132  C         47.4650   24.5640   13.3640 C.2   104  PHE104      0.2620
    133  O         48.2750   24.6110   14.2870 O.2   104  PHE104     -0.2715
    134  CB        48.9170   23.9780   11.3570 C.3   104  PHE104      0.0574
    135  CG        49.2480   22.9400   10.3120 C.ar  104  PHE104     -0.0200
    136  CD1       48.7900   23.0690    9.0070 C.ar  104  PHE104     -0.0042
    137  CD2       49.9760   21.8100   10.6510 C.ar  104  PHE104     -0.0042
    138  CE1       49.0580   22.0860    8.0590 C.ar  104  PHE104     -0.0003
    139  CE2       50.2470   20.8260    9.7170 C.ar  104  PHE104     -0.0003
    140  CZ        49.7910   20.9600    8.4200 C.ar  104  PHE104     -0.0000
    141  N         46.3500   25.2910   13.3460 N.am  105  GLY105     -0.1940
    142  CA        46.0300   26.1980   14.4370 C.3   105  GLY105      0.2014
    143  C         46.7910   27.5100   14.4700 C.2   105  GLY105      0.2638
    144  O         47.3130   27.9730   13.4490 O.2   105  GLY105     -0.2714
    145  N         46.8580   28.1110   15.6550 N.am  106  ASN106     -0.1972
    146  CA        47.5430   29.3850   15.8350 C.3   106  ASN106      0.1688
    147  C         49.0620   29.2670   15.6000 C.2   106  ASN106      0.2292
    148  O         49.6960   28.2910   16.0100 O.2   106  ASN106     -0.2864
    149  CB        47.2200   29.9380   17.2280 C.3   106  ASN106      0.1181
    150  CG        48.2680   29.5910   18.2600 C.2   106  ASN106      0.2629
    151  OD1       49.3260   30.2230   18.3240 O.2   106  ASN106     -0.2716
    152  ND2       47.9820   28.5830   19.0780 N.am  106  ASN106     -0.0877
    153  N         43.4270   44.6120    4.7240 N.3   152  LEU152     -0.1245
    154  CA        42.5080   45.1050    5.7450 C.3   152  LEU152      0.1561
    155  C         42.5130   46.6350    5.8180 C.2   152  LEU152      0.2260
    156  O         41.4610   47.2610    5.7980 O.2   152  LEU152     -0.2867
    157  CB        42.8500   44.4990    7.1170 C.3   152  LEU152      0.0270
    158  CG        42.4750   43.0260    7.3320 C.3   152  LEU152      0.0019
    159  CD1       42.9180   42.5380    8.7020 C.3   152  LEU152      0.0001
    160  CD2       40.9820   42.8830    7.2110 C.3   152  LEU152      0.0001
    161  N         39.8310   49.0780    7.7620 N.3   157  CYS157     -0.1221
    162  CA        39.7380   48.1280    8.8520 C.3   157  CYS157      0.1808
    163  C         40.9180   48.2290    9.7890 C.2   157  CYS157      0.2601
    164  O         42.0480   48.3650    9.3500 O.2   157  CYS157     -0.2717
    165  CB        39.6500   46.7090    8.3060 C.3   157  CYS157      0.0970
    166  SG        37.9770   46.0580    8.2560 S.3   157  CYS157     -0.0800
    167  N         40.6390   48.1560   11.0830 N.am  158  ILE158     -0.1965
    168  CA        41.6610   48.2170   12.1240 C.3   158  ILE158      0.1727
    169  C         41.5560   46.9650   12.9920 C.2   158  ILE158      0.2616
    170  O         40.6000   46.8400   13.7620 O.2   158  ILE158     -0.2715
    171  CB        41.4330   49.3990   13.0330 C.3   158  ILE158      0.0290
    172  CG1       41.6620   50.6960   12.2740 C.3   158  ILE158      0.0022
    173  CG2       42.3330   49.2810   14.2400 C.3   158  ILE158      0.0023
    174  CD1       41.3270   51.8980   13.1090 C.3   158  ILE158      0.0001
    175  N         42.5370   46.0650   12.9070 N.am  159  HIS159     -0.1973
    176  CA        42.4740   44.8180   13.6740 C.3   159  HIS159      0.1656
    177  C         42.3460   44.9920   15.1760 C.2   159  HIS159      0.2291
    178  O         41.4800   44.3760   15.7890 O.2   159  HIS159     -0.2864
    179  CB        43.6680   43.9210   13.3820 C.3   159  HIS159      0.0771
    180  CG        43.4990   42.5240   13.8930 C.ar  159  HIS159      0.0820
    181  ND1       43.3720   42.2340   15.2330 N.ar  159  HIS159     -0.2267
    182  CD2       43.4000   41.3410   13.2410 C.ar  159  HIS159      0.1154
    183  CE1       43.1970   40.9330   15.3850 C.ar  159  HIS159      0.1986
    184  NE2       43.2100   40.3690   14.1910 N.ar  159  HIS159     -0.2212
    185  N         46.4220   31.9350   11.9240 N.3   168  LEU168     -0.1245
    186  CA        46.1950   30.5200   11.7560 C.3   168  LEU168      0.1561
    187  C         47.0410   29.9980   10.6110 C.2   168  LEU168      0.2260
    188  O         47.3010   30.7160    9.6370 O.2   168  LEU168     -0.2867
    189  CB        44.7110   30.2760   11.4880 C.3   168  LEU168      0.0270
    190  CG        43.7630   30.7640   12.5950 C.3   168  LEU168      0.0019
    191  CD1       42.3240   30.6570   12.1280 C.3   168  LEU168      0.0001
    192  CD2       43.9410   29.9460   13.8490 C.3   168  LEU168      0.0001
    193  N         45.1060   35.7870    8.7940 N.3   177  ILE177     -0.1231
    194  CA        44.7820   36.6900    9.8920 C.3   177  ILE177      0.1692
    195  C         43.3750   36.4130   10.3750 C.2   177  ILE177      0.2592
    196  O         42.4230   36.4670    9.5980 O.2   177  ILE177     -0.2718
    197  CB        44.8040   38.1370    9.4460 C.3   177  ILE177      0.0266
    198  CG1       46.1820   38.4760    8.8890 C.3   177  ILE177      0.0019
    199  CG2       44.4190   39.0230   10.6120 C.3   177  ILE177      0.0020
    200  CD1       46.2420   39.7670    8.1320 C.3   177  ILE177      0.0001
    201  N         43.2180   36.1080   11.6490 N.am  178  CYS178     -0.1956
    202  CA        41.8790   35.8580   12.1350 C.3   178  CYS178      0.1843
    203  C         41.7160   36.6660   13.4000 C.2   178  CYS178      0.2625
    204  O         42.5400   37.5200   13.7000 O.2   178  CYS178     -0.2714
    205  CB        41.6730   34.3650   12.4030 C.3   178  CYS178      0.0997
    206  SG        42.5070   33.7650   13.8830 S.3   178  CYS178     -0.0797
    207  N         40.6570   36.4070   14.1440 N.am  179  ASP179     -0.1957
    208  CA        40.4280   37.1460   15.3660 C.3   179  ASP179      0.1840
    209  C         39.4870   36.3360   16.2290 C.2   179  ASP179      0.2622
    210  O         38.3600   36.0730   15.8230 O.2   179  ASP179     -0.2715
    211  CB        39.8040   38.4980   15.0420 C.3   179  ASP179      0.1450
    212  CG        39.7640   39.4060   16.2390 C.2   179  ASP179      0.3671
    213  OD1       39.2260   40.5320   16.1210 O.co2 179  ASP179     -0.2456
    214  OD2       40.2830   38.9850   17.2970 O.co2 179  ASP179     -0.2456
    215  N         39.9510   35.9410   17.4100 N.am  180  PHE180     -0.1974
    216  CA        39.1490   35.1350   18.3240 C.3   180  PHE180      0.1639
    217  C         38.2420   35.9400   19.2520 C.2   180  PHE180      0.2290
    218  O         37.9760   37.1200   19.0280 O.2   180  PHE180     -0.2864
    219  CB        40.0770   34.2410   19.1460 C.3   180  PHE180      0.0560
    220  CG        40.6140   33.0620   18.3820 C.ar  180  PHE180     -0.0200
    221  CD1       39.8290   31.9250   18.1890 C.ar  180  PHE180     -0.0042
    222  CD2       41.8980   33.0850   17.8550 C.ar  180  PHE180     -0.0042
    223  CE1       40.3110   30.8320   17.4880 C.ar  180  PHE180     -0.0003
    224  CE2       42.3960   31.9910   17.1460 C.ar  180  PHE180     -0.0003
    225  CZ        41.6010   30.8610   16.9630 C.ar  180  PHE180     -0.0000
@<TRIPOS>BOND
     1    62    61    2
     2    61    60    1
     3    60    59    1
     4    60    63    1
     5   102   101   ar
     6   153   154    1
     7    65    63    1
     8    54    53    2
     9   103   101   ar
    10    67    68    1
    11   101   100    1
    12    70    69    2
    13    63    64    1
    14    99   100    1
    15    99    96    1
    16    71    73    1
    17    71    68    1
    18    71    72    1
    19    53    52    1
    20   154   155    1
    21   154   157    1
    22   156   155    2
    23    68    69    1
    24    69    74   am
    25    64    66    1
    26    96    95    1
    27    96    97    1
    28    76    77    2
    29    76    75    1
    30    46    45    2
    31    95    90   am
    32   129   128    1
    33   157   158    1
    34    52    55    1
    35    52    51    1
    36   160   158    1
    37    74    75    1
    38   107   106    2
    39    75    78    1
    40   158   159    1
    41   128   127    1
    42    45    51   am
    43    45    44    1
    44   104    97   am
    45   104   105    1
    46   161   162    1
    47    90    89    1
    48    90    91    2
    49    97    98    2
    50    55    56    1
    51   138   140   ar
    52   138   136   ar
    53    89    88    1
    54    89    92    1
    55   200   198    1
    56    58    56    1
    57   166   165    1
    58   165   162    1
    59   140   139   ar
    60   106   105    1
    61   106   115   am
    62   127   126    1
    63    44    43    1
    64    44    47    1
    65   120   119    1
    66   105   108    1
    67   193   194    1
    68    78    80    1
    69    78    79    1
    70   162   163    1
    71    56    57    1
    72   198   197    1
    73    92    94    1
    74    92    93    1
    75   108   109    1
    76   136   135   ar
    77   126   125    1
    78   116   115    1
    79   116   119    1
    80   116   117    1
    81   164   163    2
    82   197   194    1
    83   197   199    1
    84   196   195    2
    85    49    47    1
    86   188   187    2
    87   139   137   ar
    88   163   167   am
    89   121   117   am
    90   121   122    1
    91    47    48    1
    92   194   195    1
    93   111   109   ar
    94   111   113   ar
    95   125   122    1
    96   109   110   ar
    97   117   118    2
    98   135   137   ar
    99   135   134    1
   100   195   201   am
   101    48    50    1
   102   187   186    1
   103    37    36    2
   104    20    21    1
   105   122   123    1
   106    86    85    1
   107   113   114   ar
   108   167   168    1
   109    83    82    1
   110    83    84    2
   111   130   123   am
   112   130   131    1
   113   134   131    1
   114   110   112   ar
   115    23    22    2
   116   189   186    1
   117   189   190    1
   118    82    85    1
   119    82    81    1
   120    36    35    1
   121   201   202    1
   122   123   124    2
   123   186   185    1
   124    85    87    1
   125    21    22    1
   126    21    24    1
   127   168   169    1
   128   168   171    1
   129   191   190    1
   130   202   205    1
   131   202   203    1
   132   131   132    1
   133   172   171    1
   134   172   174    1
   135   114   112   ar
   136   205   206    1
   137   190   192    1
   138   175   169   am
   139   175   176    1
   140    35    34    1
   141    35    38    1
   142   169   170    2
   143   171   173    1
   144   182   180   ar
   145   182   184   ar
   146   141   132   am
   147   141   142    1
   148   132   133    2
   149   179   176    1
   150   179   180    1
   151   203   204    2
   152   203   207   am
   153   144   143    2
   154   176   177    1
   155    39    38    1
   156    39    40    1
   157   180   181   ar
   158   207   208    1
   159   184   183   ar
   160   142   143    1
   161   143   145   am
   162    42    40   ar
   163    25    26    1
   164    40    41   ar
   165   211   208    1
   166   211   212    1
   167   177   178    2
   168   181   183   ar
   169    28    27    2
   170   208   209    1
   171     7     6    1
   172    29    26    1
   173    29    30    1
   174   147   146    1
   175   147   148    2
   176   145   146    1
   177    26    27    1
   178   210   209    2
   179   146   149    1
   180   213   212   ar
   181    18    17    1
   182   209   215   am
   183   212   214   ar
   184    32    31    1
   185    32    33    1
   186    31    30    1
   187     6     8    1
   188     6     5    1
   189   225   224   ar
   190   225   223   ar
   191   224   222   ar
   192   149   150    1
   193   215   216    1
   194   223   221   ar
   195    17    19    1
   196    17    14    1
   197   222   220   ar
   198     5     2    1
   199    14    15    1
   200    14    13    1
   201    15    16    2
   202   221   220   ar
   203   150   151    2
   204   150   152   am
   205   216   219    1
   206   216   217    1
   207   220   219    1
   208   218   217    2
   209     2     1    1
   210     2     3    1
   211     3     9   am
   212     3     4    2
   213     9    10    1
   214    12    11    2
   215    10    11    1
