@<TRIPOS>MOLECULE
tmp/3b8qB00.pdb
 225 215 0 0 0
SMALL
GASTEIGER

@<TRIPOS>ATOM
      1  N         26.4010   -0.9370   15.1660 N.3    21  LEU21      -0.1231
      2  CA        27.6770   -0.8030   15.8460 C.3    21  LEU21       0.1693
      3  C         27.9530   -2.0870   16.6170 C.2    21  LEU21       0.2592
      4  O         29.0740   -2.5880   16.6110 O.2    21  LEU21      -0.2718
      5  CB        27.6590    0.4030   16.7810 C.3    21  LEU21       0.0284
      6  CG        27.7280    1.7430   16.0470 C.3    21  LEU21       0.0019
      7  CD1       27.5020    2.8760   17.0030 C.3    21  LEU21       0.0001
      8  CD2       29.0760    1.8820   15.3810 C.3    21  LEU21       0.0001
      9  N         26.9190   -2.6260   17.2610 N.am   22  GLY22      -0.1957
     10  CA        27.0660   -3.8630   18.0100 C.3    22  GLY22       0.1869
     11  C         25.7590   -4.6140   18.2200 C.2    22  GLY22       0.2309
     12  O         24.6910   -4.0080   18.2620 O.2    22  GLY22      -0.2863
     13  N         22.9430   -1.9190   19.2130 N.3    27  VAL27      -0.1245
     14  CA        23.2720   -0.5020   19.1560 C.3    27  VAL27       0.1561
     15  C         23.5310   -0.1570   17.7120 C.2    27  VAL27       0.2260
     16  O         24.3060   -0.8310   17.0290 O.2    27  VAL27      -0.2867
     17  CB        24.5560   -0.1690   19.9320 C.3    27  VAL27       0.0252
     18  CG1       24.8970    1.3140   19.7520 C.3    27  VAL27       0.0019
     19  CG2       24.3960   -0.5280   21.3990 C.3    27  VAL27       0.0019
     20  N         24.1770    7.2870   18.8260 N.3    45  ALA45      -0.1245
     21  CA        24.1740    5.8460   18.9920 C.3    45  ALA45       0.1562
     22  C         22.7980    5.4990   19.5260 C.2    45  ALA45       0.2260
     23  O         22.3690    6.0550   20.5400 O.2    45  ALA45      -0.2867
     24  CB        25.2530    5.4280   19.9840 C.3    45  ALA45       0.0290
     25  N         20.1560    2.4770   20.8350 N.3    47  LYS47      -0.1245
     26  CA        20.0070    1.1100   21.3260 C.3    47  LYS47       0.1561
     27  C         18.5420    0.7400   21.2220 C.2    47  LYS47       0.2260
     28  O         17.6930    1.3740   21.8350 O.2    47  LYS47      -0.2867
     29  CB        20.4610    0.9900   22.7850 C.3    47  LYS47       0.0271
     30  CG        20.2660   -0.4010   23.3590 C.3    47  LYS47       0.0035
     31  CD        20.6530   -0.5000   24.8300 C.3    47  LYS47       0.0206
     32  CE        22.1530   -0.3970   25.0210 C.3    47  LYS47       0.1093
     33  NZ        22.5870   -0.7930   26.3930 N.3    47  LYS47      -0.1314
     34  N         16.1890    0.9250   31.7310 N.3    64  GLU64      -0.1245
     35  CA        17.5180    1.4490   31.4950 C.3    64  GLU64       0.1567
     36  C         17.3710    2.9490   31.1750 C.2    64  GLU64       0.2260
     37  O         18.1050    3.7900   31.6930 O.2    64  GLU64      -0.2867
     38  CB        18.1440    0.6840   30.3290 C.3    64  GLU64       0.0388
     39  CG        19.6290    0.8880   30.1630 C.3    64  GLU64       0.1160
     40  CD        20.1820    0.1080   28.9890 C.2    64  GLU64       0.3649
     41  OE1       19.9920   -1.1270   28.9510 O.co2  64  GLU64      -0.2457
     42  OE2       20.8060    0.7310   28.1050 O.co2  64  GLU64      -0.2457
     43  N         16.4510    4.9810   34.1570 N.3    67  ILE67      -0.1231
     44  CA        17.6040    5.0440   35.0460 C.3    67  ILE67       0.1692
     45  C         18.5590    6.1310   34.5760 C.2    67  ILE67       0.2591
     46  O         19.0990    6.9020   35.3720 O.2    67  ILE67      -0.2718
     47  CB        18.3560    3.7130   35.0700 C.3    67  ILE67       0.0266
     48  CG1       17.5600    2.6830   35.8680 C.3    67  ILE67       0.0019
     49  CG2       19.7340    3.8990   35.6720 C.3    67  ILE67       0.0020
     50  CD1       18.2790    1.3480   35.9970 C.3    67  ILE67       0.0001
     51  N         18.7730    6.1820   33.2700 N.am   68  LEU68      -0.1980
     52  CA        19.6530    7.1830   32.7050 C.3    68  LEU68       0.1596
     53  C         19.0540    8.5450   33.0150 C.2    68  LEU68       0.2287
     54  O         19.7640    9.4890   33.3580 O.2    68  LEU68      -0.2864
     55  CB        19.7980    6.9690   31.1880 C.3    68  LEU68       0.0297
     56  CG        20.7960    5.8470   30.8690 C.3    68  LEU68       0.0022
     57  CD1       20.6820    5.3850   29.4240 C.3    68  LEU68       0.0001
     58  CD2       22.2060    6.3430   31.1870 C.3    68  LEU68       0.0001
     59  N         19.6620    9.0650   36.8030 N.3    71  ILE71      -0.1245
     60  CA        21.0610    9.3440   37.0760 C.3    71  ILE71       0.1561
     61  C         21.4150   10.7810   36.7200 C.2    71  ILE71       0.2260
     62  O         22.2080   11.4130   37.4030 O.2    71  ILE71      -0.2867
     63  CB        21.9760    8.3890   36.2740 C.3    71  ILE71       0.0252
     64  CG1       21.8720    6.9700   36.8390 C.3    71  ILE71       0.0019
     65  CG2       23.4110    8.9000   36.2850 C.3    71  ILE71       0.0019
     66  CD1       22.7510    5.9610   36.1250 C.3    71  ILE71       0.0001
     67  N         29.8530   10.0390   31.8810 N.3    77  VAL77      -0.1231
     68  CA        28.9000    8.9550   31.7890 C.3    77  VAL77       0.1692
     69  C         28.2160    9.2160   30.4690 C.2    77  VAL77       0.2591
     70  O         27.6440   10.2870   30.2750 O.2    77  VAL77      -0.2718
     71  CB        27.8710    8.9720   32.9170 C.3    77  VAL77       0.0266
     72  CG1       26.8210    7.9000   32.6700 C.3    77  VAL77       0.0020
     73  CG2       28.5620    8.7150   34.2360 C.3    77  VAL77       0.0020
     74  N         28.3060    8.2630   29.5460 N.am   78  VAL78      -0.1980
     75  CA        27.6930    8.4360   28.2410 C.3    78  VAL78       0.1595
     76  C         26.3520    9.2000   28.3460 C.2    78  VAL78       0.2287
     77  O         25.4250    8.7860   29.0450 O.2    78  VAL78      -0.2864
     78  CB        27.5050    7.0720   27.5680 C.3    78  VAL78       0.0276
     79  CG1       26.5000    6.2480   28.3390 C.3    78  VAL78       0.0022
     80  CG2       27.0870    7.2640   26.1210 C.3    78  VAL78       0.0022
     81  N         16.5130    4.0730   22.4980 N.3    93  VAL93      -0.1245
     82  CA        17.1470    4.9400   23.4920 C.3    93  VAL93       0.1561
     83  C         18.3740    5.5580   22.8330 C.2    93  VAL93       0.2260
     84  O         19.2990    4.8470   22.4510 O.2    93  VAL93      -0.2867
     85  CB        17.5790    4.1530   24.7310 C.3    93  VAL93       0.0252
     86  CG1       18.4010    5.0430   25.6470 C.3    93  VAL93       0.0019
     87  CG2       16.3530    3.6390   25.4560 C.3    93  VAL93       0.0019
     88  N         21.7810    8.0550   22.6010 N.3    95  THR95      -0.1203
     89  CA        22.8750    8.6620   23.3560 C.3    95  THR95       0.1994
     90  C         23.8650    9.3150   22.3980 C.2    95  THR95       0.2618
     91  O         23.7740    9.1540   21.1780 O.2    95  THR95      -0.2717
     92  CB        23.6660    7.6370   24.1910 C.3    95  THR95       0.1784
     93  OG1       24.4790    6.8290   23.3290 O.3    95  THR95      -0.2211
     94  CG2       22.7250    6.7640   24.9740 C.3    95  THR95       0.0376
     95  N         24.8160   10.0460   22.9630 N.am   96  GLU96      -0.1965
     96  CA        25.8360   10.7250   22.1810 C.3    96  GLU96       0.1733
     97  C         26.7300    9.6850   21.5080 C.2    96  GLU96       0.2616
     98  O         26.7110    8.5100   21.8750 O.2    96  GLU96      -0.2715
     99  CB        26.6730   11.5900   23.1070 C.3    96  GLU96       0.0429
    100  CG        27.3270   10.7910   24.2050 C.3    96  GLU96       0.1163
    101  CD        28.1860   11.6470   25.0960 C.2    96  GLU96       0.3649
    102  OE1       28.9640   12.4570   24.5440 O.co2  96  GLU96      -0.2457
    103  OE2       28.0960   11.5060   26.3380 O.co2  96  GLU96      -0.2457
    104  N         27.5170   10.1140   20.5290 N.am   97  PHE97      -0.1960
    105  CA        28.4090    9.1970   19.8280 C.3    97  PHE97       0.1771
    106  C         29.8610    9.3810   20.3120 C.2    97  PHE97       0.2620
    107  O         30.3230   10.5110   20.5090 O.2    97  PHE97      -0.2715
    108  CB        28.3050    9.4390   18.3170 C.3    97  PHE97       0.0574
    109  CG        29.0380    8.4290   17.4740 C.ar   97  PHE97      -0.0200
    110  CD1       28.5030    7.1690   17.2400 C.ar   97  PHE97      -0.0042
    111  CD2       30.2620    8.7460   16.9060 C.ar   97  PHE97      -0.0042
    112  CE1       29.1820    6.2410   16.4510 C.ar   97  PHE97      -0.0003
    113  CE2       30.9400    7.8300   16.1240 C.ar   97  PHE97      -0.0003
    114  CZ        30.4010    6.5770   15.8950 C.ar   97  PHE97      -0.0000
    115  N         30.5600    8.2610   20.5190 N.am   98  CYS98      -0.1954
    116  CA        31.9530    8.2590   20.9730 C.3    98  CYS98       0.1843
    117  C         32.7810    7.6060   19.8750 C.2    98  CYS98       0.2625
    118  O         33.1510    6.4340   19.9790 O.2    98  CYS98      -0.2714
    119  CB        32.0730    7.4520   22.2590 C.3    98  CYS98       0.0997
    120  SG        31.0090    8.0450   23.5780 S.3    98  CYS98      -0.0797
    121  N         33.1160    8.3840   18.8500 N.am   99  LYS99      -0.1963
    122  CA        33.8090    7.8340   17.6980 C.3    99  LYS99       0.1728
    123  C         34.9940    6.8960   17.9010 C.2    99  LYS99       0.2616
    124  O         35.2600    6.0780   17.0130 O.2    99  LYS99      -0.2715
    125  CB        34.1700    8.9430   16.6910 C.3    99  LYS99       0.0311
    126  CG        35.3650    9.8210   17.0120 C.3    99  LYS99       0.0038
    127  CD        35.7060   10.6800   15.7900 C.3    99  LYS99       0.0206
    128  CE        36.8910   11.5990   16.0280 C.3    99  LYS99       0.1093
    129  NZ        37.2870   12.3190   14.7740 N.3    99  LYS99      -0.1314
    130  N         35.6880    6.9700   19.0410 N.am  100  PHE100     -0.1960
    131  CA        36.8260    6.0740   19.2560 C.3   100  PHE100      0.1771
    132  C         36.4520    4.7270   19.8790 C.2   100  PHE100      0.2620
    133  O         37.3020    3.8540   20.0210 O.2   100  PHE100     -0.2715
    134  CB        37.9270    6.7810   20.0600 C.3   100  PHE100      0.0574
    135  CG        38.4630    8.0090   19.3700 C.ar  100  PHE100     -0.0200
    136  CD1       38.1110    9.2790   19.8040 C.ar  100  PHE100     -0.0042
    137  CD2       39.2480    7.8930   18.2270 C.ar  100  PHE100     -0.0042
    138  CE1       38.5230   10.4100   19.1110 C.ar  100  PHE100     -0.0003
    139  CE2       39.6630    9.0150   17.5270 C.ar  100  PHE100     -0.0003
    140  CZ        39.2990   10.2790   17.9700 C.ar  100  PHE100     -0.0000
    141  N         35.1830    4.5470   20.2390 N.am  101  GLY101     -0.1940
    142  CA        34.7600    3.2690   20.7900 C.3   101  GLY101      0.2014
    143  C         35.2860    2.8550   22.1560 C.2   101  GLY101      0.2638
    144  O         35.8240    3.6750   22.8970 O.2   101  GLY101     -0.2714
    145  N         35.1190    1.5700   22.4830 N.am  102  ASN102     -0.1972
    146  CA        35.5400    1.0180   23.7730 C.3   102  ASN102      0.1688
    147  C         37.0360    1.2290   23.9900 C.2   102  ASN102      0.2292
    148  O         37.8510    1.0660   23.0790 O.2   102  ASN102     -0.2864
    149  CB        35.1390   -0.4670   23.8710 C.3   102  ASN102      0.1181
    150  CG        36.2330   -1.4110   23.4350 C.2   102  ASN102      0.2629
    151  OD1       37.0720   -1.8280   24.2420 O.2   102  ASN102     -0.2716
    152  ND2       36.2360   -1.7550   22.1550 N.am  102  ASN102     -0.0877
    153  N         27.9970    8.1410   39.8610 N.3   142  LEU142     -0.1245
    154  CA        27.0210    7.0520   39.9180 C.3   142  LEU142      0.1561
    155  C         26.6840    6.6100   41.3320 C.2   142  LEU142      0.2260
    156  O         25.5120    6.4130   41.6620 O.2   142  LEU142     -0.2867
    157  CB        27.5150    5.8420   39.1290 C.3   142  LEU142      0.0270
    158  CG        27.5140    6.0340   37.6160 C.3   142  LEU142      0.0019
    159  CD1       28.1190    4.8070   36.9590 C.3   142  LEU142      0.0001
    160  CD2       26.0980    6.2680   37.1230 C.3   142  LEU142      0.0001
    161  N         23.5750    4.1710   42.8770 N.3   147  CYS147     -0.1221
    162  CA        23.6280    3.3290   41.6980 C.3   147  CYS147      0.1808
    163  C         24.8580    2.4390   41.7040 C.2   147  CYS147      0.2601
    164  O         25.9120    2.8180   42.2150 O.2   147  CYS147     -0.2717
    165  CB        23.6010    4.1820   40.4280 C.3   147  CYS147      0.0970
    166  SG        21.9270    4.6130   39.8900 S.3   147  CYS147     -0.0800
    167  N         24.6960    1.2430   41.1470 N.am  148  ILE148     -0.1965
    168  CA        25.7700    0.2630   41.0520 C.3   148  ILE148      0.1727
    169  C         25.8700   -0.1510   39.5810 C.2   148  ILE148      0.2616
    170  O         24.8760   -0.5830   38.9910 O.2   148  ILE148     -0.2715
    171  CB        25.4600   -1.0010   41.9030 C.3   148  ILE148      0.0290
    172  CG1       25.1680   -0.6110   43.3540 C.3   148  ILE148      0.0022
    173  CG2       26.6450   -1.9560   41.8720 C.3   148  ILE148      0.0023
    174  CD1       24.7470   -1.7780   44.2110 C.3   148  ILE148      0.0001
    175  N         27.0570   -0.0240   38.9900 N.am  149  HIS149     -0.1973
    176  CA        27.2470   -0.3830   37.5870 C.3   149  HIS149      0.1656
    177  C         27.1260   -1.8910   37.3660 C.2   149  HIS149      0.2291
    178  O         26.4440   -2.3380   36.4400 O.2   149  HIS149     -0.2864
    179  CB        28.6080    0.1160   37.1010 C.3   149  HIS149      0.0771
    180  CG        28.8000    0.0010   35.6190 C.ar  149  HIS149      0.0820
    181  ND1       28.9210   -1.2110   34.9730 N.ar  149  HIS149     -0.2267
    182  CD2       28.8830    0.9480   34.6550 C.ar  149  HIS149      0.1154
    183  CE1       29.0710   -1.0050   33.6760 C.ar  149  HIS149      0.1986
    184  NE2       29.0520    0.2970   33.4570 N.ar  149  HIS149     -0.2212
    185  N         33.7350    4.2200   26.8940 N.3   158  LEU158     -0.1245
    186  CA        33.8070    4.7270   25.5310 C.3   158  LEU158      0.1561
    187  C         34.7080    5.9570   25.5010 C.2   158  LEU158      0.2260
    188  O         34.7210    6.7400   26.4490 O.2   158  LEU158     -0.2867
    189  CB        32.4010    5.0690   25.0370 C.3   158  LEU158      0.0270
    190  CG        31.4450    3.8670   25.0850 C.3   158  LEU158      0.0019
    191  CD1       30.0260    4.2940   24.7360 C.3   158  LEU158      0.0001
    192  CD2       31.9420    2.7980   24.1330 C.3   158  LEU158      0.0001
    193  N         31.6400    6.3830   30.9760 N.3   167  ILE167     -0.1231
    194  CA        31.1260    5.1140   31.4380 C.3   167  ILE167      0.1692
    195  C         29.8200    4.8180   30.7160 C.2   167  ILE167      0.2592
    196  O         28.9330    5.6650   30.6480 O.2   167  ILE167     -0.2718
    197  CB        30.8510    5.1540   32.9480 C.3   167  ILE167      0.0266
    198  CG1       32.1450    5.4580   33.7020 C.3   167  ILE167      0.0019
    199  CG2       30.2480    3.8320   33.3990 C.3   167  ILE167      0.0020
    200  CD1       31.9150    5.8530   35.1260 C.3   167  ILE167      0.0001
    201  N         29.7250    3.6230   30.1540 N.am  168  CYS168     -0.1956
    202  CA        28.5200    3.1850   29.4680 C.3   168  CYS168      0.1843
    203  C         28.2680    1.7510   29.9200 C.2   168  CYS168      0.2625
    204  O         28.9370    1.2570   30.8310 O.2   168  CYS168     -0.2714
    205  CB        28.7140    3.2110   27.9550 C.3   168  CYS168      0.0997
    206  SG        29.8220    1.9250   27.3510 S.3   168  CYS168     -0.0797
    207  N         27.3090    1.0880   29.2800 N.am  169  ASP169     -0.1957
    208  CA        26.9740   -0.2980   29.5850 C.3   169  ASP169      0.1840
    209  C         26.2150   -0.9060   28.4040 C.2   169  ASP169      0.2622
    210  O         25.1210   -0.4450   28.0480 O.2   169  ASP169     -0.2715
    211  CB        26.1200   -0.3720   30.8470 C.3   169  ASP169      0.1450
    212  CG        25.9550   -1.7960   31.3570 C.2   169  ASP169      0.3671
    213  OD1       25.2980   -1.9820   32.4080 O.co2 169  ASP169     -0.2456
    214  OD2       26.4820   -2.7320   30.7130 O.co2 169  ASP169     -0.2456
    215  N         26.7840   -1.9440   27.7980 N.am  170  PHE170     -0.1974
    216  CA        26.1400   -2.5650   26.6480 C.3   170  PHE170      0.1639
    217  C         25.0070   -3.5640   26.9360 C.2   170  PHE170      0.2290
    218  O         23.9420   -3.5050   26.3080 O.2   170  PHE170     -0.2864
    219  CB        27.1980   -3.2070   25.7630 C.3   170  PHE170      0.0560
    220  CG        28.0810   -2.2080   25.0670 C.ar  170  PHE170     -0.0200
    221  CD1       29.1860   -1.6640   25.7040 C.ar  170  PHE170     -0.0042
    222  CD2       27.7950   -1.8030   23.7710 C.ar  170  PHE170     -0.0042
    223  CE1       29.9790   -0.7440   25.0560 C.ar  170  PHE170     -0.0003
    224  CE2       28.5860   -0.8830   23.1240 C.ar  170  PHE170     -0.0003
    225  CZ        29.6760   -0.3550   23.7600 C.ar  170  PHE170     -0.0000
@<TRIPOS>BOND
     1   129   128    1
     2     1     2    1
     3     8     6    1
     4   127   128    1
     5   127   126    1
     6     2     3    1
     7     2     5    1
     8   114   113   ar
     9   114   112   ar
    10     6     5    1
    11     6     7    1
    12   113   111   ar
    13   112   110   ar
    14     4     3    2
    15     3     9   am
    16   125   126    1
    17   125   122    1
    18   111   109   ar
    19   124   123    2
    20    16    15    2
    21   110   109   ar
    22     9    10    1
    23   109   108    1
    24   139   140   ar
    25   139   137   ar
    26   122   123    1
    27   122   121    1
    28    15    14    1
    29   123   130   am
    30   140   138   ar
    31    10    11    1
    32    11    12    2
    33   137   135   ar
    34   108   105    1
    35    20    21    1
    36   121   117   am
    37    21    22    1
    38    21    24    1
    39   130   131    1
    40   138   136   ar
    41    14    13    1
    42    14    17    1
    43   131   132    1
    44   131   134    1
    45   135   136   ar
    46   135   134    1
    47    22    23    2
    48    18    17    1
    49   105   106    1
    50   105   104    1
    51   117   118    2
    52   117   116    1
    53   132   133    2
    54   132   141   am
    55    17    19    1
    56   141   142    1
    57   106   107    2
    58   106   115   am
    59   115   116    1
    60   104    97   am
    61   142   143    1
    62    25    26    1
    63   116   119    1
    64    91    90    2
    65    27    26    1
    66    27    28    2
    67    26    29    1
    68    97    98    2
    69    97    96    1
    70   152   150   am
    71   143   145   am
    72   143   144    2
    73    96    95    1
    74    96    99    1
    75   119   120    1
    76    90    95   am
    77    90    89    1
    78    84    83    2
    79   145   146    1
    80    81    82    1
    81    88    89    1
    82    29    30    1
    83    83    82    1
    84   148   147    2
    85    99   100    1
    86   224   225   ar
    87   224   222   ar
    88    93    92    1
    89    89    92    1
    90    30    31    1
    91   150   149    1
    92   150   151    2
    93    82    85    1
    94   225   223   ar
    95   222   220   ar
    96   146   149    1
    97   146   147    1
    98   192   190    1
    99    92    94    1
   100   100   101    1
   101   102   101   ar
   102    85    87    1
   103    85    86    1
   104   191   190    1
   105    31    32    1
   106    32    33    1
   107   189   190    1
   108   189   186    1
   109   223   221   ar
   110   220   221   ar
   111   220   219    1
   112   101   103   ar
   113   187   186    1
   114   187   188    2
   115   186   185    1
   116   219   216    1
   117    80    78    1
   118   218   217    2
   119   216   217    1
   120   216   215    1
   121   206   205    1
   122    78    75    1
   123    78    79    1
   124   215   209   am
   125   205   202    1
   126   210   209    2
   127    42    40   ar
   128    75    76    1
   129    75    74    1
   130    76    77    2
   131   209   208    1
   132    41    40   ar
   133    40    39    1
   134   207   208    1
   135   207   203   am
   136    57    56    1
   137   202   203    1
   138   202   201    1
   139    74    69   am
   140   208   211    1
   141   203   204    2
   142   201   195   am
   143    39    38    1
   144    70    69    2
   145    38    35    1
   146    69    68    1
   147   196   195    2
   148   214   212   ar
   149   195   194    1
   150   211   212    1
   151    56    58    1
   152    56    55    1
   153   193   194    1
   154    36    35    1
   155    36    37    2
   156    55    52    1
   157   212   213   ar
   158   194   197    1
   159    35    34    1
   160    68    67    1
   161    68    71    1
   162    72    71    1
   163    52    53    1
   164    52    51    1
   165    71    73    1
   166   197   199    1
   167   197   198    1
   168    53    54    2
   169    51    45   am
   170   184   183   ar
   171   184   182   ar
   172   183   181   ar
   173   198   200    1
   174    43    44    1
   175    45    44    1
   176    45    46    2
   177   182   180   ar
   178   181   180   ar
   179    44    47    1
   180    47    49    1
   181    47    48    1
   182   180   179    1
   183    48    50    1
   184    66    64    1
   185    63    65    1
   186    63    64    1
   187    63    60    1
   188   178   177    2
   189    61    60    1
   190    61    62    2
   191    59    60    1
   192   159   158    1
   193   179   176    1
   194   160   158    1
   195   177   176    1
   196   176   175    1
   197   158   157    1
   198   175   169   am
   199   170   169    2
   200   157   154    1
   201   169   168    1
   202   153   154    1
   203   166   165    1
   204   154   155    1
   205   165   162    1
   206   168   167    1
   207   168   171    1
   208   167   163   am
   209   155   156    2
   210   162   163    1
   211   162   161    1
   212   163   164    2
   213   173   171    1
   214   171   172    1
   215   172   174    1
