@<TRIPOS>MOLECULE
tmp/3b8rB00.pdb
 178 169 0 0 0
SMALL
GASTEIGER

@<TRIPOS>ATOM
      1  N         -1.3510   34.4350   59.1390 N.3    20  LEU20      -0.1231
      2  CA        -0.1150   34.5770   59.8890 C.3    20  LEU20       0.1693
      3  C         -0.0430   33.3850   60.8400 C.2    20  LEU20       0.2592
      4  O          1.0320   32.8470   61.1070 O.2    20  LEU20      -0.2718
      5  CB        -0.1220   35.8850   60.6830 C.3    20  LEU20       0.0284
      6  CG        -0.2340   37.1870   59.8910 C.3    20  LEU20       0.0019
      7  CD1       -0.4810   38.3350   60.8400 C.3    20  LEU20       0.0001
      8  CD2        1.0350   37.4200   59.0910 C.3    20  LEU20       0.0001
      9  N         -1.2060   32.9760   61.3390 N.am   21  GLY21      -0.1957
     10  CA        -1.2760   31.8540   62.2560 C.3    21  GLY21       0.1869
     11  C         -2.5040   30.9940   62.0190 C.2    21  GLY21       0.2309
     12  O         -3.5880   31.5040   61.7210 O.2    21  GLY21      -0.2863
     13  N         -4.9520   33.7480   63.0340 N.3    25  VAL25      -0.1245
     14  CA        -4.6060   35.1580   62.8860 C.3    25  VAL25       0.1561
     15  C         -4.3400   35.4960   61.4190 C.2    25  VAL25       0.2260
     16  O         -3.6020   34.7980   60.7270 O.2    25  VAL25      -0.2867
     17  CB        -3.3660   35.5410   63.7270 C.3    25  VAL25       0.0252
     18  CG1       -3.1220   37.0460   63.6310 C.3    25  VAL25       0.0019
     19  CG2       -3.5730   35.1360   65.1780 C.3    25  VAL25       0.0019
     20  N         -3.9460   43.0150   62.5080 N.3    43  ALA43      -0.1245
     21  CA        -3.9280   41.5740   62.6580 C.3    43  ALA43       0.1562
     22  C         -5.3330   41.2230   63.1090 C.2    43  ALA43       0.2260
     23  O         -5.8720   41.8580   64.0160 O.2    43  ALA43      -0.2867
     24  CB        -2.9100   41.1690   63.7100 C.3    43  ALA43       0.0290
     25  N         -7.9980   38.1220   64.3520 N.3    45  LYS45      -0.1245
     26  CA        -8.1920   36.7590   64.8090 C.3    45  LYS45       0.1561
     27  C         -9.6710   36.4290   64.6090 C.2    45  LYS45       0.2260
     28  O        -10.5440   37.1460   65.0940 O.2    45  LYS45      -0.2867
     29  CB        -7.7960   36.6440   66.2840 C.3    45  LYS45       0.0271
     30  CG        -8.0150   35.2670   66.8770 C.3    45  LYS45       0.0035
     31  CD        -7.4680   35.1550   68.2860 C.3    45  LYS45       0.0206
     32  CE        -5.9600   35.1980   68.2830 C.3    45  LYS45       0.1093
     33  NZ        -5.3820   34.8170   69.6040 N.3    45  LYS45      -0.1314
     34  N        -11.8970   36.7180   74.9100 N.3    59  GLU59      -0.1245
     35  CA       -10.5700   37.2020   74.5630 C.3    59  GLU59       0.1567
     36  C        -10.7260   38.7070   74.2960 C.2    59  GLU59       0.2260
     37  O         -9.9260   39.5310   74.7460 O.2    59  GLU59      -0.2867
     38  CB       -10.0800   36.4710   73.3130 C.3    59  GLU59       0.0388
     39  CG        -8.5950   36.2110   73.2990 C.3    59  GLU59       0.1160
     40  CD        -8.1710   35.2320   72.2220 C.2    59  GLU59       0.3649
     41  OE1       -8.6880   34.0960   72.2060 O.co2  59  GLU59      -0.2457
     42  OE2       -7.3140   35.5970   71.3920 O.co2  59  GLU59      -0.2457
     43  N        -11.3570   40.5420   77.5560 N.3    62  ILE62      -0.1231
     44  CA       -10.1660   40.6370   78.3820 C.3    62  ILE62       0.1692
     45  C         -9.3850   41.8700   77.9240 C.2    62  ILE62       0.2591
     46  O         -8.9420   42.6780   78.7410 O.2    62  ILE62      -0.2718
     47  CB        -9.2770   39.3890   78.2280 C.3    62  ILE62       0.0266
     48  CG1       -9.8320   38.2510   79.0830 C.3    62  ILE62       0.0019
     49  CG2       -7.8550   39.7060   78.6280 C.3    62  ILE62       0.0020
     50  CD1       -8.9830   36.9830   79.0620 C.3    62  ILE62       0.0001
     51  N         -9.2330   42.0110   76.6090 N.am   63  LEU63      -0.1980
     52  CA        -8.5110   43.1360   76.0260 C.3    63  LEU63       0.1596
     53  C         -9.1780   44.4670   76.3400 C.2    63  LEU63       0.2287
     54  O         -8.5000   45.4610   76.6100 O.2    63  LEU63      -0.2864
     55  CB        -8.3930   42.9570   74.5110 C.3    63  LEU63       0.0297
     56  CG        -7.3280   41.9560   74.0590 C.3    63  LEU63       0.0022
     57  CD1       -7.5340   41.6110   72.6040 C.3    63  LEU63       0.0001
     58  CD2       -5.9410   42.5380   74.2940 C.3    63  LEU63       0.0001
     59  N         -0.1530   44.0050   73.2030 N.3    73  VAL73      -0.1245
     60  CA        -0.7980   44.2430   71.8940 C.3    73  VAL73       0.1561
     61  C         -2.1280   44.9660   72.0850 C.2    73  VAL73       0.2260
     62  O         -2.9530   44.5610   72.9170 O.2    73  VAL73      -0.2867
     63  CB        -1.0790   42.9290   71.1070 C.3    73  VAL73       0.0252
     64  CG1        0.2440   42.1890   70.8560 C.3    73  VAL73       0.0019
     65  CG2       -2.1190   42.0350   71.8240 C.3    73  VAL73       0.0019
     66  N        -11.7660   39.7430   66.1030 N.3    88  VAL88      -0.1245
     67  CA       -11.1350   40.6450   67.0580 C.3    88  VAL88       0.1561
     68  C         -9.9070   41.2370   66.3560 C.2    88  VAL88       0.2260
     69  O         -9.0570   40.4980   65.8590 O.2    88  VAL88      -0.2867
     70  CB       -10.7080   39.9000   68.3310 C.3    88  VAL88       0.0252
     71  CG1       -9.9900   40.8580   69.2690 C.3    88  VAL88       0.0019
     72  CG2      -11.9350   39.3000   69.0150 C.3    88  VAL88       0.0019
     73  N         -6.4350   43.7160   66.2870 N.3    90  THR90      -0.1203
     74  CA        -5.4030   44.3750   67.0740 C.3    90  THR90       0.1994
     75  C         -4.3960   45.0200   66.1430 C.2    90  THR90       0.2618
     76  O         -4.4190   44.8070   64.9340 O.2    90  THR90      -0.2717
     77  CB        -4.6140   43.3970   67.9710 C.3    90  THR90       0.1784
     78  OG1       -3.8210   42.5340   67.1460 O.3    90  THR90      -0.2211
     79  CG2       -5.5470   42.5840   68.8400 C.3    90  THR90       0.0376
     80  N         -3.5020   45.8040   66.7290 N.am   91  GLU91      -0.1965
     81  CA        -2.4560   46.4750   65.9820 C.3    91  GLU91       0.1733
     82  C         -1.5700   45.3960   65.3540 C.2    91  GLU91       0.2616
     83  O         -1.5990   44.2430   65.7720 O.2    91  GLU91      -0.2715
     84  CB        -1.6410   47.3420   66.9300 C.3    91  GLU91       0.0429
     85  CG        -0.9400   46.5310   67.9890 C.3    91  GLU91       0.1163
     86  CD        -0.2080   47.3910   68.9930 C.2    91  GLU91       0.3649
     87  OE1        0.5440   48.2970   68.5720 O.co2  91  GLU91      -0.2457
     88  OE2       -0.3760   47.1540   70.2060 O.co2  91  GLU91      -0.2457
     89  N         -0.7850   45.7740   64.3550 N.am   92  PHE92      -0.1960
     90  CA         0.0900   44.8370   63.6650 C.3    92  PHE92       0.1771
     91  C          1.5300   45.0080   64.1640 C.2    92  PHE92       0.2620
     92  O          1.9920   46.1310   64.3520 O.2    92  PHE92      -0.2715
     93  CB        -0.0050   45.1140   62.1560 C.3    92  PHE92       0.0574
     94  CG         0.7700   44.1590   61.2950 C.ar   92  PHE92      -0.0200
     95  CD1        0.3450   42.8470   61.1260 C.ar   92  PHE92      -0.0042
     96  CD2        1.9120   44.5780   60.6250 C.ar   92  PHE92      -0.0042
     97  CE1        1.0450   41.9670   60.3000 C.ar   92  PHE92      -0.0003
     98  CE2        2.6090   43.7090   59.8050 C.ar   92  PHE92      -0.0003
     99  CZ         2.1750   42.4020   59.6420 C.ar   92  PHE92      -0.0000
    100  N          2.2290   43.8990   64.4040 N.am   93  CYS93      -0.1954
    101  CA         3.6260   43.9360   64.8560 C.3    93  CYS93       0.1843
    102  C          4.4150   43.2160   63.7740 C.2    93  CYS93       0.2625
    103  O          4.6650   42.0130   63.8750 O.2    93  CYS93      -0.2714
    104  CB         3.7890   43.1980   66.1840 C.3    93  CYS93       0.0997
    105  SG         2.7510   43.8100   67.5300 S.3    93  CYS93      -0.0797
    106  N          4.8250   43.9690   62.7530 N.am   94  LYS94      -0.1963
    107  CA         5.5140   43.4070   61.5950 C.3    94  LYS94       0.1728
    108  C          6.7090   42.4760   61.7660 C.2    94  LYS94       0.2616
    109  O          6.9430   41.6420   60.8900 O.2    94  LYS94      -0.2715
    110  CB         5.8750   44.5200   60.5990 C.3    94  LYS94       0.0311
    111  CG         7.0270   45.4210   60.9780 C.3    94  LYS94       0.0038
    112  CD         7.2740   46.3990   59.8390 C.3    94  LYS94       0.0206
    113  CE         8.6090   47.1060   59.9510 C.3    94  LYS94       0.1093
    114  NZ         8.8910   47.9140   58.7240 N.3    94  LYS94      -0.1314
    115  N          7.4530   42.5790   62.8660 N.am   95  PHE95      -0.1960
    116  CA         8.6060   41.6990   63.0320 C.3    95  PHE95       0.1771
    117  C          8.3060   40.3250   63.6320 C.2    95  PHE95       0.2620
    118  O          9.1900   39.4730   63.7090 O.2    95  PHE95      -0.2715
    119  CB         9.7020   42.4060   63.8270 C.3    95  PHE95       0.0574
    120  CG        10.2360   43.6250   63.1430 C.ar   95  PHE95      -0.0200
    121  CD1        9.8880   44.8890   63.5780 C.ar   95  PHE95      -0.0042
    122  CD2       11.0340   43.5130   62.0150 C.ar   95  PHE95      -0.0042
    123  CE1       10.3200   46.0160   62.9010 C.ar   95  PHE95      -0.0003
    124  CE2       11.4700   44.6450   61.3310 C.ar   95  PHE95      -0.0003
    125  CZ        11.1110   45.8890   61.7760 C.ar   95  PHE95      -0.0000
    126  N          7.0620   40.1080   64.0480 N.am   96  GLY96      -0.1940
    127  CA         6.6880   38.8180   64.6040 C.3    96  GLY96       0.2014
    128  C          7.1760   38.4980   66.0090 C.2    96  GLY96       0.2638
    129  O          7.5430   39.3940   66.7800 O.2    96  GLY96      -0.2714
    130  N          7.1820   37.2110   66.3490 N.am   97  ASN97      -0.1972
    131  CA         7.6140   36.7930   67.6720 C.3    97  ASN97       0.1688
    132  C          9.1150   37.0230   67.8830 C.2    97  ASN97       0.2292
    133  O          9.9360   36.8470   66.9860 O.2    97  ASN97      -0.2864
    134  CB         7.2080   35.3260   67.9280 C.3    97  ASN97       0.1181
    135  CG         8.1850   34.3250   67.3580 C.2    97  ASN97       0.2629
    136  OD1        9.2500   34.0790   67.9220 O.2    97  ASN97      -0.2716
    137  ND2        7.8260   33.7370   66.2330 N.am   97  ASN97      -0.0877
    138  N          5.6000   39.9630   70.7640 N.3   153  LEU153     -0.1245
    139  CA         5.6890   40.4700   69.3960 C.3   153  LEU153      0.1561
    140  C          6.5410   41.7390   69.3130 C.2   153  LEU153      0.2260
    141  O          6.5230   42.5910   70.2160 O.2   153  LEU153     -0.2867
    142  CB         4.2920   40.7440   68.8410 C.3   153  LEU153      0.0270
    143  CG         3.2890   39.5990   69.0070 C.3   153  LEU153      0.0019
    144  CD1        2.0700   39.9240   68.2070 C.3   153  LEU153      0.0001
    145  CD2        3.8720   38.2700   68.5500 C.3   153  LEU153      0.0001
    146  N          1.1300   39.3670   74.3590 N.3   163  CYS163     -0.1221
    147  CA        -0.1400   38.9780   73.7700 C.3   163  CYS163      0.1808
    148  C         -0.4810   37.5650   74.2180 C.2   163  CYS163      0.2601
    149  O          0.3110   36.9190   74.8990 O.2   163  CYS163     -0.2717
    150  CB        -0.0510   39.0250   72.2500 C.3   163  CYS163      0.0970
    151  SG         0.8780   37.6630   71.5750 S.3   163  CYS163     -0.0800
    152  N         -1.6570   37.0910   73.8240 N.am  164  ASP164     -0.1959
    153  CA        -2.1200   35.7480   74.1660 C.3   164  ASP164      0.1840
    154  C         -2.0040   35.3960   75.6400 C.2   164  ASP164      0.2622
    155  O         -1.4910   34.3310   75.9980 O.2   164  ASP164     -0.2715
    156  CB        -1.3810   34.6870   73.3470 C.3   164  ASP164      0.1450
    157  CG        -1.8440   34.6290   71.9010 C.2   164  ASP164      0.3671
    158  OD1       -3.0170   34.9810   71.6130 O.co2 164  ASP164     -0.2456
    159  OD2       -1.0290   34.2040   71.0560 O.co2 164  ASP164     -0.2456
    160  N         -2.4970   36.2890   76.4900 N.am  165  PHE165     -0.1974
    161  CA        -2.4680   36.0690   77.9230 C.3   165  PHE165      0.1639
    162  C         -3.8810   35.7770   78.4260 C.2   165  PHE165      0.2290
    163  O         -4.8640   36.2480   77.8500 O.2   165  PHE165     -0.2864
    164  CB        -1.9010   37.3050   78.6130 C.3   165  PHE165      0.0560
    165  CG        -2.5230   38.5870   78.1520 C.ar  165  PHE165     -0.0200
    166  CD1       -3.8140   38.9220   78.5250 C.ar  165  PHE165     -0.0042
    167  CD2       -1.8240   39.4490   77.3260 C.ar  165  PHE165     -0.0042
    168  CE1       -4.3940   40.0920   78.0840 C.ar  165  PHE165     -0.0003
    169  CE2       -2.3990   40.6240   76.8790 C.ar  165  PHE165     -0.0003
    170  CZ        -3.6840   40.9460   77.2570 C.ar  165  PHE165     -0.0000
    171  N         -5.3780   32.8170   78.4820 N.3   167  LEU167     -0.1245
    172  CA        -6.0450   31.8790   77.5930 C.3   167  LEU167      0.1561
    173  C         -5.8690   30.4310   78.0500 C.2   167  LEU167      0.2260
    174  O         -6.8140   29.6340   78.0090 O.2   167  LEU167     -0.2867
    175  CB        -5.5050   32.0500   76.1760 C.3   167  LEU167      0.0270
    176  CG        -5.6120   33.4760   75.6350 C.3   167  LEU167      0.0019
    177  CD1       -5.1950   33.4860   74.1760 C.3   167  LEU167      0.0001
    178  CD2       -7.0360   33.9860   75.7830 C.3   167  LEU167      0.0001
@<TRIPOS>BOND
     1   114   113    1
     2     8     6    1
     3     1     2    1
     4    99    98   ar
     5    99    97   ar
     6    98    96   ar
     7   112   113    1
     8   112   111    1
     9     2     5    1
    10     2     3    1
    11     6     5    1
    12     6     7    1
    13    97    95   ar
    14   110   111    1
    15   110   107    1
    16    96    94   ar
    17    16    15    2
    18     3     4    2
    19     3     9   am
    20   109   108    2
    21    95    94   ar
    22    94    93    1
    23   124   125   ar
    24   124   122   ar
    25     9    10    1
    26    15    14    1
    27   107   108    1
    28   107   106    1
    29    12    11    2
    30   108   115   am
    31   125   123   ar
    32   122   120   ar
    33    11    10    1
    34    93    90    1
    35    20    21    1
    36    21    22    1
    37    21    24    1
    38   106   102   am
    39   115   116    1
    40    14    13    1
    41    14    17    1
    42   123   121   ar
    43   116   117    1
    44   116   119    1
    45    22    23    2
    46   120   121   ar
    47   120   119    1
    48    18    17    1
    49   117   118    2
    50   117   126   am
    51    90    91    1
    52    90    89    1
    53    17    19    1
    54   102   103    2
    55   102   101    1
    56   126   127    1
    57    91    92    2
    58    91   100   am
    59    25    26    1
    60    89    82   am
    61   100   101    1
    62   127   128    1
    63    27    26    1
    64    27    28    2
    65    26    29    1
    66   101   104    1
    67    76    75    2
    68    82    83    2
    69    82    81    1
    70    69    68    2
    71    81    80    1
    72    81    84    1
    73   128   130   am
    74   128   129    2
    75    66    67    1
    76    75    80   am
    77    75    74    1
    78   104   105    1
    79   137   135   am
    80    29    30    1
    81    73    74    1
    82   130   131    1
    83    68    67    1
    84    30    31    1
    85    84    85    1
    86   133   132    2
    87    67    70    1
    88    74    77    1
    89    78    77    1
    90   135   136    2
    91   135   134    1
    92   131   132    1
    93   131   134    1
    94    77    79    1
    95    85    86    1
    96   144   143    1
    97    32    31    1
    98    32    33    1
    99    70    72    1
   100    70    71    1
   101   145   143    1
   102    87    86   ar
   103   142   143    1
   104   142   139    1
   105    86    88   ar
   106   140   139    1
   107   140   141    2
   108   139   138    1
   109    64    63    1
   110   159   157   ar
   111    63    65    1
   112    63    60    1
   113    42    40   ar
   114   151   150    1
   115   158   157   ar
   116    60    61    1
   117    60    59    1
   118   157   156    1
   119    61    62    2
   120    41    40   ar
   121    40    39    1
   122   150   147    1
   123    57    56    1
   124    39    38    1
   125    38    35    1
   126   156   153    1
   127   147   148    1
   128   147   146    1
   129   152   153    1
   130   152   148   am
   131    56    58    1
   132    56    55    1
   133   153   154    1
   134   177   176    1
   135   148   149    2
   136    36    35    1
   137    36    37    2
   138    55    52    1
   139    35    34    1
   140   176   178    1
   141   176   175    1
   142   154   155    2
   143   154   160   am
   144    52    53    1
   145    52    51    1
   146   175   172    1
   147    53    54    2
   148   160   161    1
   149    51    45   am
   150   169   170   ar
   151   169   167   ar
   152   170   168   ar
   153   167   165   ar
   154    43    44    1
   155   172   173    1
   156   172   171    1
   157   163   162    2
   158   161   162    1
   159   161   164    1
   160    45    44    1
   161    45    46    2
   162   174   173    2
   163   168   166   ar
   164   165   166   ar
   165   165   164    1
   166    47    44    1
   167    47    49    1
   168    47    48    1
   169    50    48    1
