@<TRIPOS>MOLECULE
tmp/3b8rA00.pdb
 170 161 0 0 0
SMALL
GASTEIGER

@<TRIPOS>ATOM
      1  N          8.9450   -8.1010   63.4760 N.3    23  LEU23      -0.1231
      2  CA        10.3200   -7.7220   63.2040 C.3    23  LEU23       0.1693
      3  C         10.6150   -6.5540   64.1380 C.2    23  LEU23       0.2592
      4  O         11.7300   -6.4060   64.6340 O.2    23  LEU23      -0.2718
      5  CB        10.4750   -7.2950   61.7360 C.3    23  LEU23       0.0284
      6  CG        10.1910   -8.3360   60.6420 C.3    23  LEU23       0.0019
      7  CD1       10.0150   -7.6620   59.2890 C.3    23  LEU23       0.0001
      8  CD2       11.3190   -9.3410   60.5900 C.3    23  LEU23       0.0001
      9  N          9.5970   -5.7350   64.3870 N.am   24  GLY24      -0.1957
     10  CA         9.7650   -4.5880   65.2590 C.3    24  GLY24       0.1869
     11  C          8.4470   -3.9010   65.5680 C.2    24  GLY24       0.2309
     12  O          7.3730   -4.4610   65.3400 O.2    24  GLY24      -0.2863
     13  N          6.2200   -3.4300   63.0010 N.3    26  VAL26      -0.1245
     14  CA         6.4710   -4.0280   61.7010 C.3    26  VAL26       0.1561
     15  C          6.4300   -5.5480   61.7710 C.2    26  VAL26       0.2260
     16  O          7.0100   -6.1580   62.6650 O.2    26  VAL26      -0.2867
     17  CB         7.8220   -3.5720   61.1370 C.3    26  VAL26       0.0252
     18  CG1        7.9690   -4.0620   59.7130 C.3    26  VAL26       0.0019
     19  CG2        7.9170   -2.0560   61.1850 C.3    26  VAL26       0.0019
     20  N          6.9860   -6.4770   54.2200 N.3    44  ALA44      -0.1245
     21  CA         7.0330   -5.9610   55.5830 C.3    44  ALA44       0.1562
     22  C          5.7720   -5.1330   55.7830 C.2    44  ALA44       0.2260
     23  O          5.4330   -4.2940   54.9490 O.2    44  ALA44      -0.2867
     24  CB         8.2730   -5.0940   55.7790 C.3    44  ALA44       0.0290
     25  N          3.4760   -2.5910   58.3700 N.3    46  LYS46      -0.1245
     26  CA         3.3940   -1.7550   59.5520 C.3    46  LYS46       0.1561
     27  C          1.9120   -1.5770   59.8510 C.2    46  LYS46       0.2260
     28  O          1.1650   -1.0610   59.0190 O.2    46  LYS46      -0.2867
     29  CB         4.0530   -0.4060   59.2910 C.3    46  LYS46       0.0271
     30  CG         3.9390    0.5690   60.4410 C.3    46  LYS46       0.0035
     31  CD         4.8660    1.7700   60.2670 C.3    46  LYS46       0.0206
     32  CE         6.3290    1.3490   60.2770 C.3    46  LYS46       0.1093
     33  NZ         7.2610    2.5090   60.2980 N.3    46  LYS46      -0.1314
     34  N          1.9630    8.4980   57.0710 N.3    63  GLU63      -0.1245
     35  CA         3.1870    7.7710   56.7660 C.3    63  GLU63       0.1567
     36  C          2.9690    7.1900   55.3640 C.2    63  GLU63       0.2260
     37  O          3.8530    7.2370   54.5060 O.2    63  GLU63      -0.2867
     38  CB         3.3770    6.6580   57.8020 C.3    63  GLU63       0.0388
     39  CG         4.8100    6.3020   58.1190 C.3    63  GLU63       0.1160
     40  CD         4.9370    5.4230   59.3620 C.2    63  GLU63       0.3649
     41  OE1        4.3570    5.7860   60.4100 O.co2  63  GLU63      -0.2457
     42  OE2        5.6230    4.3780   59.2960 O.co2  63  GLU63      -0.2457
     43  N          2.9730    9.9890   52.7390 N.3    66  ILE66      -0.1231
     44  CA         4.3050   10.5280   52.5220 C.3    66  ILE66       0.1692
     45  C          4.8980    9.6390   51.4390 C.2    66  ILE66       0.2591
     46  O          5.3170   10.1200   50.3970 O.2    66  ILE66      -0.2718
     47  CB         5.1790   10.4620   53.8230 C.3    66  ILE66       0.0266
     48  CG1        4.9530   11.7170   54.6740 C.3    66  ILE66       0.0019
     49  CG2        6.6650   10.3440   53.4820 C.3    66  ILE66       0.0020
     50  CD1        5.8420   11.7680   55.9240 C.3    66  ILE66       0.0001
     51  N          4.8990    8.3320   51.6870 N.am   67  LEU67      -0.1980
     52  CA         5.4320    7.3590   50.7390 C.3    67  LEU67       0.1596
     53  C          4.8080    7.4610   49.3440 C.2    67  LEU67       0.2287
     54  O          5.5090    7.3360   48.3330 O.2    67  LEU67      -0.2864
     55  CB         5.2510    5.9350   51.2910 C.3    67  LEU67       0.0297
     56  CG         6.2640    5.5350   52.3720 C.3    67  LEU67       0.0022
     57  CD1        5.8330    4.2750   53.0790 C.3    67  LEU67       0.0001
     58  CD2        7.6290    5.3470   51.7340 C.3    67  LEU67       0.0001
     59  N         12.9790    2.8830   50.8660 N.3    77  VAL77      -0.1245
     60  CA        12.0430    1.7770   51.0410 C.3    77  VAL77       0.1561
     61  C         10.8020    1.9390   50.1620 C.2    77  VAL77       0.2260
     62  O         10.1160    2.9590   50.2170 O.2    77  VAL77      -0.2867
     63  CB        11.6240    1.6520   52.5080 C.3    77  VAL77       0.0252
     64  CG1       10.7530    2.8400   52.9050 C.3    77  VAL77       0.0019
     65  CG2       10.9250    0.3310   52.7260 C.3    77  VAL77       0.0019
     66  N          0.1830   -0.5980   56.1520 N.3    92  VAL92      -0.1245
     67  CA         0.9930   -0.0030   55.0950 C.3    92  VAL92       0.1561
     68  C          2.0390   -1.0460   54.7380 C.2    92  VAL92       0.2260
     69  O          2.8110   -1.4740   55.5970 O.2    92  VAL92      -0.2867
     70  CB         1.6740    1.2830   55.5850 C.3    92  VAL92       0.0252
     71  CG1        2.5940    1.8370   54.5110 C.3    92  VAL92       0.0019
     72  CG2        0.6140    2.2990   55.9610 C.3    92  VAL92       0.0019
     73  N          5.3570   -2.5150   52.5320 N.3    94  THR94      -0.1203
     74  CA         6.5400   -2.1960   51.7530 C.3    94  THR94       0.1994
     75  C          7.3190   -3.4520   51.3840 C.2    94  THR94       0.2618
     76  O          7.0750   -4.5440   51.9060 O.2    94  THR94      -0.2717
     77  CB         7.5070   -1.2510   52.5180 C.3    94  THR94       0.1784
     78  OG1        8.1170   -1.9640   53.5950 O.3    94  THR94      -0.2211
     79  CG2        6.7610   -0.0500   53.0750 C.3    94  THR94       0.0376
     80  N          8.2590   -3.2760   50.4630 N.am   95  GLU95      -0.1965
     81  CA         9.1240   -4.3560   50.0370 C.3    95  GLU95       0.1733
     82  C          9.8340   -4.8490   51.2930 C.2    95  GLU95       0.2616
     83  O          9.8980   -4.1420   52.3030 O.2    95  GLU95      -0.2715
     84  CB        10.1560   -3.8320   49.0510 C.3    95  GLU95       0.0429
     85  CG        11.0470   -2.7680   49.6570 C.3    95  GLU95       0.1163
     86  CD        12.0080   -2.1760   48.6540 C.2    95  GLU95       0.3649
     87  OE1       12.6810   -2.9580   47.9400 O.co2  95  GLU95      -0.2457
     88  OE2       12.0950   -0.9320   48.5920 O.co2  95  GLU95      -0.2457
     89  N         10.3770   -6.0580   51.2140 N.am   96  PHE96      -0.1960
     90  CA        11.0770   -6.6760   52.3310 C.3    96  PHE96       0.1771
     91  C         12.5820   -6.6180   52.0900 C.2    96  PHE96       0.2620
     92  O         13.0410   -6.9010   50.9860 O.2    96  PHE96      -0.2715
     93  CB        10.6110   -8.1340   52.4460 C.3    96  PHE96       0.0574
     94  CG        11.1880   -8.8790   53.6150 C.ar   96  PHE96      -0.0200
     95  CD1       10.8190   -8.5570   54.9170 C.ar   96  PHE96      -0.0042
     96  CD2       12.0900   -9.9180   53.4130 C.ar   96  PHE96      -0.0042
     97  CE1       11.3400   -9.2600   56.0030 C.ar   96  PHE96      -0.0003
     98  CE2       12.6150  -10.6230   54.4840 C.ar   96  PHE96      -0.0003
     99  CZ        12.2370  -10.2920   55.7860 C.ar   96  PHE96      -0.0000
    100  N         13.3450   -6.2350   53.1110 N.am   97  CYS97      -0.1954
    101  CA        14.8160   -6.1740   53.0200 C.3    97  CYS97       0.1843
    102  C         15.3460   -7.2020   54.0170 C.2    97  CYS97       0.2625
    103  O         15.5440   -6.9010   55.1930 O.2    97  CYS97      -0.2714
    104  CB        15.3160   -4.7770   53.3930 C.3    97  CYS97       0.0997
    105  SG        14.6160   -3.4880   52.3590 S.3    97  CYS97      -0.0797
    106  N         15.5970   -8.4140   53.5400 N.am   98  LYS98      -0.1963
    107  CA        16.0170   -9.5020   54.4220 C.3    98  LYS98       0.1728
    108  C         17.2020   -9.3620   55.3750 C.2    98  LYS98       0.2616
    109  O         17.1990   -9.9820   56.4320 O.2    98  LYS98      -0.2715
    110  CB        16.1670  -10.7980   53.6150 C.3    98  LYS98       0.0311
    111  CG        17.3790  -10.9130   52.7240 C.3    98  LYS98       0.0038
    112  CD        17.2950  -12.2400   51.9660 C.3    98  LYS98       0.0206
    113  CE        18.6270  -12.6410   51.3540 C.3    98  LYS98       0.1093
    114  NZ        18.5530  -13.9820   50.7050 N.3    98  LYS98      -0.1314
    115  N         18.2060   -8.5550   55.0420 N.am   99  PHE99      -0.1960
    116  CA        19.3550   -8.4250   55.9410 C.3    99  PHE99       0.1771
    117  C         19.1550   -7.4750   57.1350 C.2    99  PHE99       0.2620
    118  O         19.9300   -7.5000   58.0960 O.2    99  PHE99      -0.2715
    119  CB        20.6000   -8.0540   55.1300 C.3    99  PHE99       0.0574
    120  CG        20.9310   -9.0550   54.0520 C.ar   99  PHE99      -0.0200
    121  CD1       20.5580   -8.8340   52.7260 C.ar   99  PHE99      -0.0042
    122  CD2       21.5790  -10.2420   54.3710 C.ar   99  PHE99      -0.0042
    123  CE1       20.8260   -9.7820   51.7340 C.ar   99  PHE99      -0.0003
    124  CE2       21.8480  -11.1920   53.3890 C.ar   99  PHE99      -0.0003
    125  CZ        21.4700  -10.9600   52.0670 C.ar   99  PHE99      -0.0000
    126  N         18.1100   -6.6560   57.0940 N.am  100  GLY100     -0.1954
    127  CA        17.8610   -5.7580   58.2060 C.3   100  GLY100      0.1869
    128  C         18.6070   -4.4320   58.1530 C.2   100  GLY100      0.2309
    129  O         19.0210   -3.9820   57.0800 O.2   100  GLY100     -0.2863
    130  N         18.1960   -0.0040   55.5960 N.3   163  LEU163     -0.1245
    131  CA        17.9480   -1.4340   55.4900 C.3   163  LEU163      0.1561
    132  C         18.7510   -1.9970   54.3310 C.2   163  LEU163      0.2260
    133  O         18.9990   -1.2960   53.3490 O.2   163  LEU163     -0.2867
    134  CB        16.4600   -1.6870   55.2610 C.3   163  LEU163      0.0270
    135  CG        15.5530   -1.0120   56.2940 C.3   163  LEU163      0.0019
    136  CD1       14.1090   -1.4340   56.1100 C.3   163  LEU163      0.0001
    137  CD2       16.0420   -1.3830   57.6880 C.3   163  LEU163      0.0001
    138  N         14.5790    4.4820   55.2210 N.3   173  CYS173     -0.1221
    139  CA        13.2190    4.3100   55.7350 C.3   173  CYS173      0.1808
    140  C         13.0020    5.1180   57.0080 C.2   173  CYS173      0.2601
    141  O         13.9460    5.6310   57.5930 O.2   173  CYS173     -0.2717
    142  CB        12.9290    2.8260   56.0150 C.3   173  CYS173      0.0970
    143  SG        13.7750    2.1340   57.4720 S.3   173  CYS173     -0.0800
    144  N         11.7480    5.2120   57.4320 N.am  174  ASP174     -0.1959
    145  CA        11.3610    5.9520   58.6350 C.3   174  ASP174      0.1840
    146  C         11.7490    7.4110   58.6410 C.2   174  ASP174      0.2622
    147  O         12.2190    7.9140   59.6520 O.2   174  ASP174     -0.2715
    148  CB        11.9250    5.3070   59.8990 C.3   174  ASP174      0.1450
    149  CG        11.1700    4.0640   60.2950 C.2   174  ASP174      0.3671
    150  OD1        9.9880    3.9460   59.9040 O.co2 174  ASP174     -0.2456
    151  OD2       11.7480    3.2110   61.0050 O.co2 174  ASP174     -0.2456
    152  N         11.5450    8.0840   57.5150 N.am  175  PHE175     -0.1974
    153  CA        11.8470    9.5010   57.4060 C.3   175  PHE175      0.1639
    154  C         10.5940   10.3590   57.6130 C.2   175  PHE175      0.2290
    155  O          9.4710    9.8960   57.4300 O.2   175  PHE175     -0.2864
    156  CB        12.4720    9.7880   56.0420 C.3   175  PHE175      0.0560
    157  CG        11.7390    9.1630   54.8910 C.ar  175  PHE175     -0.0200
    158  CD1       10.5790    9.7270   54.3990 C.ar  175  PHE175     -0.0042
    159  CD2       12.2350    8.0250   54.2780 C.ar  175  PHE175     -0.0042
    160  CE1        9.9330    9.1670   53.3090 C.ar  175  PHE175     -0.0003
    161  CE2       11.5920    7.4630   53.1900 C.ar  175  PHE175     -0.0003
    162  CZ        10.4420    8.0350   52.7050 C.ar  175  PHE175     -0.0000
    163  N          9.2120   11.4340   60.3440 N.3   177  LEU177     -0.1245
    164  CA         8.3610   10.9330   61.4170 C.3   177  LEU177      0.1561
    165  C          8.6480   11.6590   62.7320 C.2   177  LEU177      0.2260
    166  O          7.7520   11.8600   63.5620 O.2   177  LEU177     -0.2867
    167  CB         8.5730    9.4250   61.6030 C.3   177  LEU177      0.0270
    168  CG         8.2650    8.5270   60.4010 C.3   177  LEU177      0.0019
    169  CD1        8.3080    7.0730   60.8250 C.3   177  LEU177      0.0001
    170  CD2        6.8950    8.8630   59.8390 C.3   177  LEU177      0.0001
@<TRIPOS>BOND
     1    87    86   ar
     2    54    53    2
     3    88    86   ar
     4    86    85    1
     5    84    85    1
     6    84    81    1
     7    53    52    1
     8    81    80    1
     9    81    82    1
    10    61    62    2
    11    61    60    1
    12    46    45    2
    13    80    75   am
    14   114   113    1
    15    52    55    1
    16    52    51    1
    17    59    60    1
    18    92    91    2
    19    60    63    1
    20    89    82   am
    21    89    90    1
    22    55    56    1
    23    82    83    2
    24   113   112    1
    25    75    74    1
    26    75    76    2
    27    45    51   am
    28    45    44    1
    29    58    56    1
    30   123   125   ar
    31   123   121   ar
    32    74    77    1
    33    74    73    1
    34   112   111    1
    35   125   124   ar
    36    91    90    1
    37    91   100   am
    38    90    93    1
    39   105   104    1
    40    56    57    1
    41    93    94    1
    42    63    65    1
    43    63    64    1
    44    77    79    1
    45    77    78    1
    46    44    43    1
    47    44    47    1
    48   162   161   ar
    49   162   160   ar
    50   111   110    1
    51   121   120   ar
    52   101   100    1
    53   101   104    1
    54   101   102    1
    55   161   159   ar
    56   160   158   ar
    57   133   132    2
    58   124   122   ar
    59    96    94   ar
    60    96    98   ar
    61    49    47    1
    62   106   102   am
    63   106   107    1
    64   110   107    1
    65    94    95   ar
    66    47    48    1
    67   102   103    2
    68   120   122   ar
    69   120   119    1
    70    20    21    1
    71   159   157   ar
    72   132   131    1
    73   158   157   ar
    74   107   108    1
    75    98    99   ar
    76    37    36    2
    77    71    70    1
    78    48    50    1
    79    68    67    1
    80    68    69    2
    81   157   156    1
    82    95    97   ar
    83    23    22    2
    84   115   108   am
    85   115   116    1
    86    67    70    1
    87    67    66    1
    88   119   116    1
    89   138   139    1
    90   134   131    1
    91   134   135    1
    92    36    35    1
    93   108   109    2
    94   131   130    1
    95    21    24    1
    96    21    22    1
    97    70    72    1
    98   139   142    1
    99   139   140    1
   100    99    97   ar
   101   116   117    1
   102   142   143    1
   103   156   153    1
   104   136   135    1
   105   135   137    1
   106    35    34    1
   107    35    38    1
   108   140   144   am
   109   140   141    2
   110   129   128    2
   111   126   117   am
   112   126   127    1
   113   117   118    2
   114   153   152    1
   115   153   154    1
   116   155   154    2
   117   144   145    1
   118   152   146   am
   119    38    39    1
   120    39    40    1
   121   128   127    1
   122    25    26    1
   123   145   146    1
   124   145   148    1
   125   146   147    2
   126    28    27    2
   127     7     6    1
   128    29    26    1
   129    29    30    1
   130    42    40   ar
   131    40    41   ar
   132    26    27    1
   133    18    17    1
   134   170   168    1
   135   148   149    1
   136   150   149   ar
   137    31    32    1
   138    31    30    1
   139    32    33    1
   140   149   151   ar
   141   163   164    1
   142   168   169    1
   143   168   167    1
   144     8     6    1
   145     6     5    1
   146    17    19    1
   147    17    14    1
   148   164   167    1
   149   164   165    1
   150    14    15    1
   151    14    13    1
   152     5     2    1
   153    15    16    2
   154   165   166    2
   155     2     1    1
   156     2     3    1
   157     3     9   am
   158     3     4    2
   159     9    10    1
   160    10    11    1
   161    12    11    2
