@<TRIPOS>MOLECULE
tmp/3b8xA01.pdb
 112 110 0 0 0
SMALL
GASTEIGER

@<TRIPOS>ATOM
      1  N         61.5500   78.0740    7.1200 N.3    23  SER23      -0.1202
      2  CA        60.1200   77.8710    7.0500 C.3    23  SER23       0.2020
      3  C         59.5090   77.5330    8.4140 C.2    23  SER23       0.2619
      4  O         58.3100   77.6320    8.5740 O.2    23  SER23      -0.2717
      5  CB        59.8050   76.6860    6.1200 C.3    23  SER23       0.2103
      6  OG        59.9790   75.4480    6.8330 O.3    23  SER23      -0.2182
      7  N         60.3060   77.0350    9.3470 N.am   24  LYS24      -0.1965
      8  CA        59.8010   76.5120   10.6230 C.3    24  LYS24       0.1728
      9  C         58.7860   75.3690   10.4140 C.2    24  LYS24       0.2616
     10  O         58.0720   74.9670   11.3460 O.2    24  LYS24      -0.2715
     11  CB        59.2730   77.5830   11.5740 C.3    24  LYS24       0.0311
     12  CG        60.3220   78.3150   12.3610 C.3    24  LYS24       0.0038
     13  CD        59.9600   79.7770   12.3760 C.3    24  LYS24       0.0206
     14  CE        59.4370   80.2330   13.7210 C.3    24  LYS24       0.1093
     15  NZ        59.4250   81.7270   13.8330 N.3    24  LYS24      -0.1314
     16  N         58.7390   74.8080    9.2120 N.am   25  MET25      -0.1963
     17  CA        57.8550   73.6540    8.9830 C.3    25  MET25       0.1736
     18  C         58.6940   72.3960    8.8540 C.2    25  MET25       0.2616
     19  O         59.3620   72.1660    7.8630 O.2    25  MET25      -0.2715
     20  CB        56.8800   73.8000    7.8100 C.3    25  MET25       0.0427
     21  CG        56.0920   72.5020    7.4820 C.3    25  MET25       0.0599
     22  SD        55.1100   71.6940    8.8210 S.3    25  MET25      -0.1393
     23  CE        54.0000   73.0570    9.2420 C.3    25  MET25       0.0692
     24  N         58.6820   71.5890    9.9050 N.am   26  PHE26      -0.1960
     25  CA        59.5340   70.4260    9.9440 C.3    26  PHE26       0.1771
     26  C         58.9250   69.0860    9.6150 C.2    26  PHE26       0.2620
     27  O         59.6120   68.1640    9.1890 O.2    26  PHE26      -0.2715
     28  CB        60.2490   70.3460   11.3120 C.3    26  PHE26       0.0574
     29  CG        61.0380   71.5970   11.6330 C.ar   26  PHE26      -0.0200
     30  CD1       60.5130   72.5760   12.4700 C.ar   26  PHE26      -0.0042
     31  CD2       62.2210   71.8730   10.9490 C.ar   26  PHE26      -0.0042
     32  CE1       61.1840   73.7910   12.6640 C.ar   26  PHE26      -0.0003
     33  CE2       62.9230   73.0690   11.1690 C.ar   26  PHE26      -0.0003
     34  CZ        62.4160   74.0140   12.0460 C.ar   26  PHE26      -0.0000
     35  N         57.6440   68.9880    9.9190 N.am   27  THR27      -0.1951
     36  CA        56.8900   67.7550    9.7480 C.3    27  THR27       0.1897
     37  C         56.7290   67.5350    8.2560 C.2    27  THR27       0.2313
     38  O         56.5840   68.4950    7.4820 O.2    27  THR27      -0.2863
     39  CB        55.5300   67.9880   10.3690 C.3    27  THR27       0.1794
     40  OG1       55.7540   68.2380   11.7580 O.3    27  THR27      -0.2208
     41  CG2       54.6310   66.8290   10.1640 C.3    27  THR27       0.0378
     42  N         50.3910   56.7680   10.3950 N.3   213  HIS213     -0.1241
     43  CA        49.3960   56.3860   11.3790 C.3   213  HIS213      0.1621
     44  C         48.1940   55.6390   10.8780 C.2   213  HIS213      0.2264
     45  O         47.3000   55.4440   11.6500 O.2   213  HIS213     -0.2867
     46  CB        48.8530   57.6520   12.1410 C.3   213  HIS213      0.0745
     47  CG        49.9200   58.5100   12.7510 C.ar  213  HIS213      0.0817
     48  ND1       50.6070   58.1500   13.8880 N.ar  213  HIS213     -0.2268
     49  CD2       50.3890   59.7320   12.4020 C.ar  213  HIS213      0.1154
     50  CE1       51.4710   59.1000   14.1970 C.ar  213  HIS213      0.1986
     51  NE2       51.3290   60.0970   13.3410 N.ar  213  HIS213     -0.2212
     52  N         46.1360   56.7750    8.9040 N.3   215  TRP215     -0.1241
     53  CA        45.1030   57.8200    8.8100 C.3   215  TRP215      0.1605
     54  C         44.8250   58.2480    7.3880 C.2   215  TRP215      0.2264
     55  O         45.4440   57.7390    6.4570 O.2   215  TRP215     -0.2867
     56  CB        45.2790   58.9810    9.8190 C.3   215  TRP215      0.0550
     57  CG        46.3510   59.9920    9.4970 C.ar  215  TRP215      0.0003
     58  CD1       47.0560   60.1600    8.2870 C.ar  215  TRP215      0.0946
     59  CD2       46.9060   60.9230   10.4250 C.ar  215  TRP215      0.0152
     60  NE1       47.9770   61.1970    8.4520 N.ar  215  TRP215     -0.2442
     61  CE2       47.9400   61.6300    9.7570 C.ar  215  TRP215      0.0810
     62  CE3       46.6420   61.2100   11.7800 C.ar  215  TRP215      0.0012
     63  CZ2       48.7040   62.6220   10.3980 C.ar  215  TRP215      0.0191
     64  CZ3       47.3560   62.2400   12.4110 C.ar  215  TRP215      0.0001
     65  CH2       48.3750   62.9400   11.7050 C.ar  215  TRP215      0.0015
     66  N         44.6880   61.5540    6.2630 N.3   217  ARG217     -0.1245
     67  CA        45.1050   62.9240    5.9240 C.3   217  ARG217      0.1563
     68  C         45.8040   63.0260    4.6250 C.2   217  ARG217      0.2260
     69  O         45.5950   63.9970    3.9060 O.2   217  ARG217     -0.2867
     70  CB        45.9860   63.5490    7.0120 C.3   217  ARG217      0.0307
     71  CG        45.2990   63.6330    8.4090 C.3   217  ARG217      0.0489
     72  CD        45.8470   64.7760    9.2310 C.3   217  ARG217      0.2205
     73  NE        45.4260   64.7620   10.6270 N.pl3 217  ARG217     -0.0865
     74  CZ        46.0620   65.4120   11.5970 C.cat 217  ARG217      0.5346
     75  NH1       47.1630   66.1210   11.3270 N.pl3 217  ARG217      0.1354
     76  NH2       45.6030   65.3610   12.8300 N.pl3 217  ARG217      0.1354
     77  N         40.3220   64.1190   10.5090 N.3   237  SER237     -0.1202
     78  CA        41.6160   64.5230   11.0910 C.3   237  SER237      0.2020
     79  C         42.2840   63.3590   11.7830 C.2   237  SER237      0.2618
     80  O         43.4140   63.0370   11.4640 O.2   237  SER237     -0.2717
     81  CB        41.5290   65.8100   11.9330 C.3   237  SER237      0.2103
     82  OG        41.8640   65.6470   13.2990 O.3   237  SER237     -0.2182
     83  N         41.5280   62.6600   12.6380 N.am  238  PHE238     -0.1975
     84  CA        42.0040   61.4270   13.2760 C.3   238  PHE238      0.1639
     85  C         41.1640   60.2070   12.8130 C.2   238  PHE238      0.2290
     86  O         40.6220   59.4830   13.6390 O.2   238  PHE238     -0.2864
     87  CB        41.9220   61.4940   14.8080 C.3   238  PHE238      0.0560
     88  CG        42.8780   62.4510   15.4550 C.ar  238  PHE238     -0.0200
     89  CD1       44.0170   62.9040   14.7900 C.ar  238  PHE238     -0.0042
     90  CD2       42.6380   62.8830   16.7650 C.ar  238  PHE238     -0.0042
     91  CE1       44.8950   63.7920   15.4170 C.ar  238  PHE238     -0.0003
     92  CE2       43.5130   63.7500   17.4070 C.ar  238  PHE238     -0.0003
     93  CZ        44.6390   64.2290   16.7230 C.ar  238  PHE238     -0.0000
     94  N         53.9810   54.9040   11.8060 N.3   246  ASN246     -0.1240
     95  CA        54.4200   56.2550   11.5590 C.3   246  ASN246      0.1653
     96  C         55.8470   56.0900   11.0230 C.2   246  ASN246      0.2266
     97  O         56.7740   55.8170   11.7690 O.2   246  ASN246     -0.2867
     98  CB        54.4700   57.1570   12.7910 C.3   246  ASN246      0.1155
     99  CG        55.1510   58.5090   12.4700 C.2   246  ASN246      0.2627
    100  OD1       55.5490   58.7690   11.3220 O.2   246  ASN246     -0.2716
    101  ND2       55.2510   59.3740   13.4630 N.am  246  ASN246     -0.0877
    102  N         57.0480   58.3970    8.6150 N.3   248  ARG248     -0.1245
    103  CA        57.1780   59.6240    7.8350 C.3   248  ARG248      0.1563
    104  C         58.6050   60.0730    7.8340 C.2   248  ARG248      0.2260
    105  O         59.3200   59.9460    8.8370 O.2   248  ARG248     -0.2867
    106  CB        56.3130   60.7200    8.4510 C.3   248  ARG248      0.0307
    107  CG        54.8770   60.3780    8.3130 C.3   248  ARG248      0.0489
    108  CD        53.9700   61.5280    8.7850 C.3   248  ARG248      0.2205
    109  NE        54.3620   62.0920   10.0630 N.pl3 248  ARG248     -0.0865
    110  CZ        53.5120   62.8620   10.7750 C.cat 248  ARG248      0.5346
    111  NH1       52.2940   63.1430   10.3080 N.pl3 248  ARG248      0.1354
    112  NH2       53.8700   63.3920   11.9430 N.pl3 248  ARG248      0.1354
@<TRIPOS>BOND
     1    69    68    2
     2    68    67    1
     3    67    66    1
     4    67    70    1
     5     5     6    1
     6     5     2    1
     7    55    54    2
     8    70    71    1
     9     2     1    1
    10     2     3    1
    11    54    53    1
    12    38    37    2
    13    21    20    1
    14    21    22    1
    15    20    17    1
    16   104   103    1
    17   104   105    2
    18   103   106    1
    19   103   102    1
    20    19    18    2
    21    37    36    1
    22    58    60   ar
    23    58    57   ar
    24   107   106    1
    25   107   108    1
    26    71    72    1
    27     3     4    2
    28     3     7   am
    29    60    61   ar
    30   108   109    1
    31    53    52    1
    32    53    56    1
    33    22    23    1
    34    18    17    1
    35    18    24   am
    36    17    16    1
    37    27    26    2
    38    16     9   am
    39    72    73    1
    40     7     8    1
    41    57    56    1
    42    57    59   ar
    43    26    35   am
    44    26    25    1
    45    36    35    1
    46    36    39    1
    47    61    63   ar
    48    61    59   ar
    49    24    25    1
    50    25    28    1
    51   109   110    2
    52    41    39    1
    53   111   110    1
    54    39    40    1
    55    42    43    1
    56    63    65   ar
    57     9     8    1
    58     9    10    2
    59    59    62   ar
    60    77    78    1
    61     8    11    1
    62    73    74    2
    63   110   112    1
    64    44    43    1
    65    44    45    2
    66    31    33   ar
    67    31    29   ar
    68    96    95    1
    69    96    97    2
    70    78    79    1
    71    78    81    1
    72    33    34   ar
    73    28    29    1
    74   100    99    2
    75    75    74    1
    76    43    46    1
    77    80    79    2
    78    95    94    1
    79    95    98    1
    80    11    12    1
    81    74    76    1
    82    29    30   ar
    83    65    64   ar
    84    62    64   ar
    85    79    83   am
    86    81    82    1
    87    34    32   ar
    88    46    47    1
    89    12    13    1
    90    13    14    1
    91    49    47   ar
    92    49    51   ar
    93    99    98    1
    94    99   101   am
    95    30    32   ar
    96    83    84    1
    97    47    48   ar
    98    85    84    1
    99    85    86    2
   100    84    87    1
   101    51    50   ar
   102    14    15    1
   103    48    50   ar
   104    89    91   ar
   105    89    88   ar
   106    87    88    1
   107    91    93   ar
   108    88    90   ar
   109    93    92   ar
   110    90    92   ar
