@<TRIPOS>MOLECULE
tmp/3b8xA00.pdb
 206 196 0 0 0
SMALL
GASTEIGER

@<TRIPOS>ATOM
      1  N         84.8730   53.7280    2.5050 N.3     4  LEU4       -0.1231
      2  CA        83.6940   53.1950    1.8470 C.3     4  LEU4        0.1693
      3  C         82.8450   54.3270    1.2690 C.2     4  LEU4        0.2591
      4  O         82.3520   54.2140    0.1460 O.2     4  LEU4       -0.2718
      5  CB        82.8600   52.4330    2.8770 C.3     4  LEU4        0.0284
      6  CG        82.9310   50.9230    3.1000 C.3     4  LEU4        0.0019
      7  CD1       81.4700   50.5460    3.3860 C.3     4  LEU4        0.0001
      8  CD2       83.5320   50.1460    1.8940 C.3     4  LEU4        0.0001
      9  N         82.6790   55.4110    2.0400 N.am    5  ALA5       -0.1980
     10  CA        81.8480   56.5560    1.6410 C.3     5  ALA5        0.1597
     11  C         82.4330   57.9150    1.9170 C.2     5  ALA5        0.2287
     12  O         83.3320   58.0970    2.7360 O.2     5  ALA5       -0.2864
     13  CB        80.4850   56.4980    2.3030 C.3     5  ALA5        0.0319
     14  N         63.3640   55.3720    5.9520 N.3    53  SER53      -0.1202
     15  CA        64.5850   54.6840    5.5950 C.3    53  SER53       0.2020
     16  C         64.2590   53.6710    4.5350 C.2    53  SER53       0.2619
     17  O         63.0880   53.4130    4.2530 O.2    53  SER53      -0.2717
     18  CB        65.2270   53.9780    6.7850 C.3    53  SER53       0.2103
     19  OG        64.4350   52.9080    7.2830 O.3    53  SER53      -0.2182
     20  N         65.2930   53.1250    3.8980 N.am   54  GLY54      -0.1942
     21  CA        65.0190   52.1130    2.8670 C.3    54  GLY54       0.2014
     22  C         64.4330   50.8560    3.5220 C.2    54  GLY54       0.2639
     23  O         63.7490   50.0420    2.8690 O.2    54  GLY54      -0.2714
     24  N         64.7430   50.6530    4.7890 N.am   55  SER55      -0.1949
     25  CA        64.2250   49.5200    5.5590 C.3    55  SER55       0.1924
     26  C         62.7120   49.7130    5.8480 C.2    55  SER55       0.2314
     27  O         61.9310   48.7620    5.7640 O.2    55  SER55      -0.2863
     28  CB        64.9750   49.3850    6.9050 C.3    55  SER55       0.2116
     29  OG        66.3570   49.0310    6.7790 O.3    55  SER55      -0.2180
     30  N         60.9880   48.9550    2.6470 N.3    58  ASN58      -0.1240
     31  CA        60.7170   47.5280    2.4410 C.3    58  ASN58       0.1653
     32  C         59.5370   47.0650    3.2970 C.2    58  ASN58       0.2266
     33  O         58.7280   46.2710    2.8420 O.2    58  ASN58      -0.2867
     34  CB        61.9320   46.6390    2.8080 C.3    58  ASN58       0.1155
     35  CG        62.9980   46.5670    1.7080 C.2    58  ASN58       0.2627
     36  OD1       62.7650   46.9040    0.5490 O.2    58  ASN58      -0.2716
     37  ND2       64.1830   46.1220    2.0950 N.am   58  ASN58      -0.0877
     38  N         71.6360   39.4420    0.5950 N.3    85  SER85      -0.1202
     39  CA        71.0330   40.7720    0.5430 C.3    85  SER85       0.2020
     40  C         71.2060   41.4750    1.8890 C.2    85  SER85       0.2618
     41  O         72.1390   41.1820    2.5950 O.2    85  SER85      -0.2717
     42  CB        69.5600   40.7110    0.1570 C.3    85  SER85       0.2103
     43  OG        69.0920   42.0340    0.0180 O.3    85  SER85      -0.2182
     44  N         70.3310   42.4050    2.2470 N.am   86  TRP86      -0.1975
     45  CA        70.4370   43.1100    3.5510 C.3    86  TRP86       0.1640
     46  C         69.4050   42.4610    4.4920 C.2    86  TRP86       0.2290
     47  O         68.4140   41.9080    4.0180 O.2    86  TRP86      -0.2864
     48  CB        70.1660   44.6390    3.4110 C.3    86  TRP86       0.0576
     49  CG        70.3910   45.4080    4.6970 C.ar   86  TRP86       0.0006
     50  CD1       69.4580   46.0530    5.4870 C.ar   86  TRP86       0.0946
     51  CD2       71.6410   45.6830    5.2730 C.ar   86  TRP86       0.0152
     52  NE1       70.0620   46.6160    6.5930 N.ar   86  TRP86      -0.2442
     53  CE2       71.4120   46.4210    6.4690 C.ar   86  TRP86       0.0810
     54  CE3       72.9510   45.3300    4.9340 C.ar   86  TRP86       0.0012
     55  CZ2       72.4520   46.8010    7.3280 C.ar   86  TRP86       0.0191
     56  CZ3       73.9850   45.7250    5.7820 C.ar   86  TRP86       0.0001
     57  CH2       73.7270   46.4070    6.9920 C.ar   86  TRP86       0.0015
     58  N         67.0220   43.6690    6.4260 N.3    88  THR88      -0.1203
     59  CA        65.6600   44.1960    6.3100 C.3    88  THR88       0.1994
     60  C         65.0200   43.9470    4.9550 C.2    88  THR88       0.2618
     61  O         63.9320   44.4310    4.6840 O.2    88  THR88      -0.2717
     62  CB        65.5400   45.6430    6.7220 C.3    88  THR88       0.1784
     63  OG1       66.4300   46.4260    5.9180 O.3    88  THR88      -0.2211
     64  CG2       65.8930   45.7920    8.1850 C.3    88  THR88       0.0376
     65  N         65.6870   43.1760    4.1040 N.am   89  THR89      -0.1952
     66  CA        65.0140   42.7630    2.8860 C.3    89  THR89       0.1897
     67  C         64.1450   41.5830    3.3600 C.2    89  THR89       0.2313
     68  O         63.0180   41.3850    2.8850 O.2    89  THR89      -0.2863
     69  CB        66.0200   42.2250    1.9030 C.3    89  THR89       0.1794
     70  OG1       66.8430   43.2970    1.4050 O.3    89  THR89      -0.2208
     71  CG2       65.3020   41.5110    0.7600 C.3    89  THR89       0.0378
     72  N         66.4450   41.4400   -5.7080 N.3   131  VAL131     -0.1245
     73  CA        67.3430   42.4100   -5.0850 C.3   131  VAL131      0.1561
     74  C         68.3860   42.7510   -6.1510 C.2   131  VAL131      0.2260
     75  O         68.9760   41.8550   -6.7780 O.2   131  VAL131     -0.2867
     76  CB        68.0280   41.8080   -3.8420 C.3   131  VAL131      0.0252
     77  CG1       69.0550   42.7960   -3.2640 C.3   131  VAL131      0.0019
     78  CG2       66.9950   41.4660   -2.8030 C.3   131  VAL131      0.0019
     79  N         63.8480   45.0600   -4.2750 N.3   157  ASP157     -0.1239
     80  CA        64.5110   45.8180   -3.2170 C.3   157  ASP157      0.1674
     81  C         65.6500   46.5170   -3.9890 C.2   157  ASP157      0.2266
     82  O         66.6220   45.8610   -4.4220 O.2   157  ASP157     -0.2867
     83  CB        65.0360   44.9060   -2.1080 C.3   157  ASP157      0.1410
     84  CG        65.8520   45.6810   -1.0660 C.2   157  ASP157      0.3668
     85  OD1       66.3730   46.7500   -1.4130 O.co2 157  ASP157     -0.2456
     86  OD2       65.9870   45.2320    0.0990 O.co2 157  ASP157     -0.2456
     87  N         67.5220   49.1930   -2.9620 N.3   159  CYS159     -0.1221
     88  CA        68.2580   50.0360   -2.0460 C.3   159  CYS159      0.1808
     89  C         69.7280   50.1160   -2.3130 C.2   159  CYS159      0.2601
     90  O         70.3650   51.0290   -1.7960 O.2   159  CYS159     -0.2717
     91  CB        67.9900   49.6290   -0.5980 C.3   159  CYS159      0.0970
     92  SG        66.2570   49.9320   -0.0910 S.3   159  CYS159     -0.0800
     93  N         70.2860   49.1950   -3.0990 N.am  160  GLU160     -0.1979
     94  CA        71.6970   49.2980   -3.4250 C.3   160  GLU160      0.1602
     95  C         71.9230   49.7170   -4.8790 C.2   160  GLU160      0.2287
     96  O         73.0800   49.9720   -5.2820 O.2   160  GLU160     -0.2864
     97  CB        72.4290   47.9560   -3.2350 C.3   160  GLU160      0.0415
     98  CG        72.3610   47.4680   -1.8110 C.3   160  GLU160      0.1163
     99  CD        72.9970   46.1270   -1.6410 C.2   160  GLU160      0.3649
    100  OE1       73.6480   45.6860   -2.5820 O.co2 160  GLU160     -0.2457
    101  OE2       72.7880   45.4740   -0.6080 O.co2 160  GLU160     -0.2457
    102  N         66.9780   53.5180   -1.0260 N.3   181  SER181     -0.1217
    103  CA        67.4670   54.0530    0.2320 C.3   181  SER181      0.1889
    104  C         68.2550   55.3170   -0.0610 C.2   181  SER181      0.2288
    105  O         68.9190   55.3980   -1.0800 O.2   181  SER181     -0.2866
    106  CB        68.4720   53.0950    0.8680 C.3   181  SER181      0.2089
    107  OG        69.0220   53.8240    1.9640 O.3   181  SER181     -0.2183
    108  N         70.2500   56.5050    2.5810 N.3   183  PHE183     -0.1227
    109  CA        71.1020   56.5640    3.7770 C.3   183  PHE183      0.1736
    110  C         72.4290   57.2060    3.3830 C.2   183  PHE183      0.2595
    111  O         72.8080   57.1840    2.2120 O.2   183  PHE183     -0.2718
    112  CB        71.3970   55.1510    4.3080 C.3   183  PHE183      0.0547
    113  CG        72.3160   55.1480    5.5100 C.ar  183  PHE183     -0.0202
    114  CD1       71.9320   55.7490    6.6870 C.ar  183  PHE183     -0.0042
    115  CD2       73.5730   54.5730    5.4420 C.ar  183  PHE183     -0.0042
    116  CE1       72.8020   55.8570    7.7560 C.ar  183  PHE183     -0.0003
    117  CE2       74.4310   54.6510    6.5100 C.ar  183  PHE183     -0.0003
    118  CZ        74.0520   55.2980    7.6690 C.ar  183  PHE183     -0.0000
    119  N         73.1630   57.7470    4.3590 N.am  184  TYR184     -0.1962
    120  CA        74.4810   58.3410    4.1040 C.3   184  TYR184      0.1771
    121  C         75.4030   57.7640    3.0020 C.2   184  TYR184      0.2620
    122  O         75.9500   58.4870    2.1590 O.2   184  TYR184     -0.2715
    123  CB        75.3130   58.4360    5.4070 C.3   184  TYR184      0.0574
    124  CG        76.6640   59.0860    5.1660 C.ar  184  TYR184     -0.0198
    125  CD1       76.7960   60.4580    5.1020 C.ar  184  TYR184     -0.0009
    126  CD2       77.8180   58.3030    5.0320 C.ar  184  TYR184     -0.0009
    127  CE1       78.0440   61.0380    4.8510 C.ar  184  TYR184      0.0417
    128  CE2       79.0740   58.8630    4.8200 C.ar  184  TYR184      0.0417
    129  CZ        79.1810   60.2320    4.7100 C.ar  184  TYR184      0.1957
    130  OH        80.4350   60.7780    4.5190 O.3   184  TYR184     -0.2866
    131  N         75.6930   56.4760    3.0780 N.am  185  SER185     -0.1936
    132  CA        76.6620   55.9020    2.1610 C.3   185  SER185      0.2055
    133  C         76.0910   55.3500    0.8550 C.2   185  SER185      0.2643
    134  O         76.7350   54.5360    0.1890 O.2   185  SER185     -0.2714
    135  CB        77.4140   54.8010    2.9100 C.3   185  SER185      0.2130
    136  OG        76.4950   53.9780    3.6180 O.3   185  SER185     -0.2179
    137  N         74.9170   55.8170    0.4550 N.am  186  ASN186     -0.1971
    138  CA        74.2770   55.2780   -0.7360 C.3   186  ASN186      0.1688
    139  C         74.4550   56.2350   -1.8710 C.2   186  ASN186      0.2292
    140  O         75.1740   57.2100   -1.7230 O.2   186  ASN186     -0.2864
    141  CB        72.7910   55.1540   -0.4360 C.3   186  ASN186      0.1181
    142  CG        72.2240   53.8370   -0.8530 C.2   186  ASN186      0.2629
    143  OD1       72.3220   53.4420   -2.0130 O.2   186  ASN186     -0.2716
    144  ND2       71.6210   53.1310    0.1060 N.am  186  ASN186     -0.0877
    145  N         68.8820   60.0310    6.5580 N.3   192  GLU192     -0.1231
    146  CA        68.2920   58.6920    6.4730 C.3   192  GLU192      0.1699
    147  C         67.1770   58.9480    5.4950 C.2   192  GLU192      0.2592
    148  O         66.7780   60.1040    5.2960 O.2   192  GLU192     -0.2718
    149  CB        67.7050   58.1630    7.7790 C.3   192  GLU192      0.0402
    150  CG        68.8010   57.9120    8.7830 C.3   192  GLU192      0.1161
    151  CD        68.9320   56.4790    9.1930 C.2   192  GLU192      0.3649
    152  OE1       68.5940   55.5780    8.3970 O.co2 192  GLU192     -0.2457
    153  OE2       69.3910   56.2680   10.3270 O.co2 192  GLU192     -0.2457
    154  N         66.6960   57.8770    4.8810 N.am  193  GLY193     -0.1957
    155  CA        65.5710   58.0360    3.9820 C.3   193  GLY193      0.1869
    156  C         65.4020   56.8140    3.1300 C.2   193  GLY193      0.2309
    157  O         66.3610   56.1000    2.8840 O.2   193  GLY193     -0.2863
    158  N         77.4770   50.3640   -6.7830 N.3   300  PHE300     -0.1241
    159  CA        77.4160   50.8430   -5.4150 C.3   300  PHE300      0.1605
    160  C         78.7940   50.7060   -4.7660 C.2   300  PHE300      0.2264
    161  O         79.2630   51.6100   -4.0640 O.2   300  PHE300     -0.2867
    162  CB        76.3990   49.9640   -4.6630 C.3   300  PHE300      0.0534
    163  CG        76.2680   50.2740   -3.2140 C.ar  300  PHE300     -0.0203
    164  CD1       75.2490   51.1070   -2.7630 C.ar  300  PHE300     -0.0042
    165  CD2       77.0240   49.5890   -2.2960 C.ar  300  PHE300     -0.0042
    166  CE1       75.0310   51.3030   -1.3980 C.ar  300  PHE300     -0.0003
    167  CE2       76.8620   49.8260   -0.9310 C.ar  300  PHE300     -0.0003
    168  CZ        75.8550   50.6860   -0.4810 C.ar  300  PHE300     -0.0000
    169  N         89.2950   50.5900    3.5080 N.3   327  GLU327     -0.1245
    170  CA        88.1160   50.1210    4.2300 C.3   327  GLU327      0.1567
    171  C         87.4830   49.0100    3.4080 C.2   327  GLU327      0.2260
    172  O         87.4230   49.0790    2.1720 O.2   327  GLU327     -0.2867
    173  CB        87.1080   51.2860    4.4200 C.3   327  GLU327      0.0388
    174  CG        86.1140   51.0950    5.6030 C.3   327  GLU327      0.1160
    175  CD        85.1450   52.2620    5.8900 C.2   327  GLU327      0.3649
    176  OE1       85.2400   53.3650    5.2920 O.co2 327  GLU327     -0.2457
    177  OE2       84.2570   52.0490    6.7500 O.co2 327  GLU327     -0.2457
    178  N         84.3170   45.5420    3.5010 N.3   329  ARG329     -0.1245
    179  CA        83.1360   44.9780    4.1390 C.3   329  ARG329      0.1563
    180  C         82.8680   43.5900    3.5720 C.2   329  ARG329      0.2260
    181  O         83.3250   43.3110    2.4720 O.2   329  ARG329     -0.2867
    182  CB        81.9490   45.8260    3.7030 C.3   329  ARG329      0.0307
    183  CG        81.9670   47.2290    4.2320 C.3   329  ARG329      0.0489
    184  CD        80.5840   47.8440    4.2100 C.3   329  ARG329      0.2205
    185  NE        80.0490   48.0070    5.5610 N.pl3 329  ARG329     -0.0865
    186  CZ        80.6370   48.6700    6.5620 C.cat 329  ARG329      0.5346
    187  NH1       81.8270   49.2490    6.4240 N.pl3 329  ARG329      0.1354
    188  NH2       80.0450   48.7170    7.7430 N.pl3 329  ARG329      0.1354
    189  N         77.4320   42.3420    2.0210 N.3   332  VAL332     -0.1245
    190  CA        76.1990   42.3860    2.8040 C.3   332  VAL332      0.1561
    191  C         75.8320   41.2310    3.8020 C.2   332  VAL332      0.2260
    192  O         76.5250   40.9840    4.7950 O.2   332  VAL332     -0.2867
    193  CB        74.9770   42.9400    1.9520 C.3   332  VAL332      0.0252
    194  CG1       75.2230   44.3760    1.6870 C.3   332  VAL332      0.0019
    195  CG2       74.8830   42.1880    0.6140 C.3   332  VAL332      0.0019
    196  N         83.8690   43.5470   -0.0120 N.3   366  PHE366     -0.1241
    197  CA        83.7840   44.6530   -0.9420 C.3   366  PHE366      0.1605
    198  C         84.4580   45.9370   -0.4910 C.2   366  PHE366      0.2264
    199  O         84.6980   46.1360    0.7210 O.2   366  PHE366     -0.2867
    200  CB        82.3890   44.8320   -1.5640 C.3   366  PHE366      0.0534
    201  CG        81.5270   45.8190   -0.8570 C.ar  366  PHE366     -0.0203
    202  CD1       80.7040   45.4000    0.1780 C.ar  366  PHE366     -0.0042
    203  CD2       81.5800   47.1690   -1.1840 C.ar  366  PHE366     -0.0042
    204  CE1       79.9200   46.2990    0.8590 C.ar  366  PHE366     -0.0003
    205  CE2       80.8330   48.0860   -0.4950 C.ar  366  PHE366     -0.0003
    206  CZ        80.0100   47.6600    0.5450 C.ar  366  PHE366     -0.0000
@<TRIPOS>BOND
     1   158   159    1
     2    75    74    2
     3    74    73    1
     4    72    73    1
     5   159   160    1
     6   159   162    1
     7    96    95    2
     8    73    76    1
     9    95    94    1
    10   160   161    2
    11   162   163    1
    12    82    81    2
    13    79    80    1
    14    81    80    1
    15    76    77    1
    16    76    78    1
    17    94    97    1
    18    94    93    1
    19    97    98    1
    20    80    83    1
    21   163   164   ar
    22   163   165   ar
    23    93    89   am
    24    87    88    1
    25   164   166   ar
    26   100    99   ar
    27    89    88    1
    28    89    90    2
    29   165   167   ar
    30    83    84    1
    31    88    91    1
    32   143   142    2
    33   139   140    2
    34   139   138    1
    35    98    99    1
    36    99   101   ar
    37   200   197    1
    38   200   201    1
    39    85    84   ar
    40   166   168   ar
    41   203   201   ar
    42   203   205   ar
    43   105   104    2
    44    84    86   ar
    45   102   103    1
    46   197   198    1
    47   197   196    1
    48   167   168   ar
    49   201   202   ar
    50   142   141    1
    51   142   144   am
    52   138   141    1
    53   138   137    1
    54    91    92    1
    55   205   206   ar
    56   198   199    2
    57   104   103    1
    58    43    42    1
    59     4     3    2
    60    42    39    1
    61   202   204   ar
    62   134   133    2
    63   103   106    1
    64   137   133   am
    65    39    38    1
    66    39    40    1
    67   206   204   ar
    68    36    35    2
    69   195   193    1
    70    71    69    1
    71   133   132    1
    72   106   107    1
    73     3     2    1
    74     3     9   am
    75    70    69    1
    76    10    11    1
    77    10     9    1
    78    10    13    1
    79   194   193    1
    80    35    37   am
    81    35    34    1
    82     2     1    1
    83     2     5    1
    84    40    44   am
    85    40    41    2
    86     8     6    1
    87    69    66    1
    88    11    12    2
    89   193   190    1
    90   189   190    1
    91   122   121    2
    92   132   135    1
    93   132   131    1
    94   172   171    2
    95   111   110    2
    96    44    45    1
    97    31    30    1
    98    31    34    1
    99    31    32    1
   100   181   180    2
   101   108   109    1
   102   190   191    1
   103    33    32    2
   104    21    22    1
   105    21    20    1
   106    23    22    2
   107     5     6    1
   108   157   156    2
   109    68    67    2
   110    66    67    1
   111    66    65    1
   112   135   136    1
   113   121   131   am
   114   121   120    1
   115     6     7    1
   116   156   155    1
   117   110   109    1
   118   110   119   am
   119   171   170    1
   120    48    45    1
   121    48    49    1
   122   178   179    1
   123   169   170    1
   124    22    24   am
   125    45    46    1
   126   180   179    1
   127   182   179    1
   128   182   183    1
   129   109   112    1
   130   191   192    2
   131    20    16   am
   132   155   154    1
   133    47    46    2
   134    65    60   am
   135   120   119    1
   136   120   123    1
   137   184   183    1
   138   184   185    1
   139   170   173    1
   140    17    16    2
   141   112   113    1
   142   173   174    1
   143   130   129    1
   144    16    15    1
   145    61    60    2
   146    49    51   ar
   147    49    50   ar
   148   129   128   ar
   149   129   127   ar
   150    24    25    1
   151   128   126   ar
   152   127   125   ar
   153   154   147   am
   154    54    51   ar
   155    54    56   ar
   156    60    59    1
   157   126   124   ar
   158   125   124   ar
   159   124   123    1
   160    51    53   ar
   161   176   175   ar
   162   148   147    2
   163   115   113   ar
   164   115   117   ar
   165    50    52   ar
   166   147   146    1
   167   113   114   ar
   168    25    26    1
   169    25    28    1
   170   185   186    2
   171    15    14    1
   172    15    18    1
   173   174   175    1
   174    27    26    2
   175    56    57   ar
   176   175   177   ar
   177    63    62    1
   178    59    58    1
   179    59    62    1
   180   187   186    1
   181    53    52   ar
   182    53    55   ar
   183   146   145    1
   184   146   149    1
   185   117   118   ar
   186   186   188    1
   187   114   116   ar
   188    62    64    1
   189    29    28    1
   190    18    19    1
   191    57    55   ar
   192   118   116   ar
   193   149   150    1
   194   152   151   ar
   195   150   151    1
   196   151   153   ar
