@<TRIPOS>MOLECULE
tmp/3b8yA00.pdb
 126 116 0 0 0
SMALL
GASTEIGER

@<TRIPOS>ATOM
      1  N          4.7520    5.9180   -4.0760 N.3   140  ASP140     -0.1239
      2  CA         5.6680    5.9210   -2.9380 C.3   140  ASP140      0.1674
      3  C          4.9730    6.1440   -1.5870 C.2   140  ASP140      0.2266
      4  O          5.5420    6.7330   -0.6660 O.2   140  ASP140     -0.2867
      5  CB         6.8250    6.9080   -3.1360 C.3   140  ASP140      0.1410
      6  CG         8.0400    6.5540   -2.2820 C.2   140  ASP140      0.3668
      7  OD1        8.7520    7.4690   -1.8220 O.co2 140  ASP140     -0.2456
      8  OD2        8.2820    5.3480   -2.0630 O.co2 140  ASP140     -0.2456
      9  N          7.5680    2.4150   -0.9360 N.3   162  ASP162     -0.1239
     10  CA         7.6280    2.5970    0.5110 C.3   162  ASP162      0.1674
     11  C          6.1770    2.8010    0.9520 C.2   162  ASP162      0.2266
     12  O          5.3940    3.3940    0.2130 O.2   162  ASP162     -0.2867
     13  CB         8.4510    3.8400    0.8720 C.3   162  ASP162      0.1410
     14  CG         9.9390    3.7050    0.5290 C.2   162  ASP162      0.3668
     15  OD1       10.4260    2.5720    0.2940 O.co2 162  ASP162     -0.2456
     16  OD2       10.6310    4.7490    0.5130 O.co2 162  ASP162     -0.2456
     17  N          6.9450    7.1990    4.6410 N.3   165  THR165     -0.1218
     18  CA         8.2840    7.7350    4.7870 C.3   165  THR165      0.1862
     19  C          8.2800    8.8870    5.7790 C.2   165  THR165      0.2287
     20  O          7.4550    9.8040    5.7020 O.2   165  THR165     -0.2866
     21  CB         8.8420    8.2030    3.4100 C.3   165  THR165      0.1770
     22  OG1        8.9110    7.0820    2.5250 O.3   165  THR165     -0.2211
     23  CG2       10.2320    8.7940    3.5390 C.3   165  THR165      0.0375
     24  N         10.0560   -2.1200    1.5840 N.3   184  LYS184     -0.1245
     25  CA        10.2740   -1.2860    2.7620 C.3   184  LYS184      0.1561
     26  C          8.9070   -0.8170    3.2290 C.2   184  LYS184      0.2260
     27  O          8.1330   -0.2920    2.4320 O.2   184  LYS184     -0.2867
     28  CB        11.0950   -0.0550    2.3910 C.3   184  LYS184      0.0271
     29  CG        12.1890    0.3090    3.3780 C.3   184  LYS184      0.0035
     30  CD        13.4880   -0.3650    2.9810 C.3   184  LYS184      0.0206
     31  CE        13.8360   -0.0440    1.5350 C.3   184  LYS184      0.1093
     32  NZ        15.0150   -0.8330    1.0650 N.3   184  LYS184     -0.1314
     33  N         10.0460    3.8380    6.0500 N.3   187  GLN187     -0.1245
     34  CA        11.3460    4.4050    5.6750 C.3   187  GLN187      0.1566
     35  C         11.5570    5.6740    6.4820 C.2   187  GLN187      0.2260
     36  O         10.7050    6.5610    6.4780 O.2   187  GLN187     -0.2867
     37  CB        11.3650    4.7580    4.1880 C.3   187  GLN187      0.0367
     38  CG        12.3400    3.9610    3.3490 C.3   187  GLN187      0.0905
     39  CD        13.7770    4.1410    3.7700 C.2   187  GLN187      0.2608
     40  OE1       14.2780    5.2610    3.8650 O.2   187  GLN187     -0.2717
     41  NE2       14.4550    3.0330    4.0260 N.am  187  GLN187     -0.0878
     42  N         14.0310    8.8270    6.8910 N.3   189  ASN189     -0.1240
     43  CA        15.1220    9.5960    6.2850 C.3   189  ASN189      0.1653
     44  C         15.5150   10.8630    7.0500 C.2   189  ASN189      0.2266
     45  O         16.6470   11.3180    6.9460 O.2   189  ASN189     -0.2867
     46  CB        14.7820    9.9740    4.8430 C.3   189  ASN189      0.1155
     47  CG        14.4990    8.7700    3.9730 C.2   189  ASN189      0.2627
     48  OD1       15.0850    7.7080    4.1460 O.2   189  ASN189     -0.2716
     49  ND2       13.5720    8.9280    3.0410 N.am  189  ASN189     -0.0877
     50  N         11.7240   -5.1030    5.4070 N.3   209  LYS209     -0.1245
     51  CA        11.8630   -4.6340    6.7820 C.3   209  LYS209      0.1561
     52  C         10.6240   -3.8430    7.1820 C.2   209  LYS209      0.2260
     53  O          9.9600   -3.2410    6.3350 O.2   209  LYS209     -0.2867
     54  CB        13.1110   -3.7640    6.9530 C.3   209  LYS209      0.0271
     55  CG        14.4220   -4.5150    6.7530 C.3   209  LYS209      0.0035
     56  CD        15.6260   -3.5960    6.9370 C.3   209  LYS209      0.0206
     57  CE        16.9310   -4.2820    6.5450 C.3   209  LYS209      0.1093
     58  NZ        16.9800   -4.6110    5.0980 N.3   209  LYS209     -0.1314
     59  N         13.3250    0.8400    8.6360 N.3   212  ARG212     -0.1245
     60  CA        14.7190    0.9850    8.2960 C.3   212  ARG212      0.1563
     61  C         15.1900    2.4380    8.3410 C.2   212  ARG212      0.2260
     62  O         14.6320    3.3050    7.6590 O.2   212  ARG212     -0.2867
     63  CB        14.9770    0.4210    6.9000 C.3   212  ARG212      0.0307
     64  CG        16.4070    0.5520    6.4490 C.3   212  ARG212      0.0489
     65  CD        17.3650   -0.0750    7.4500 C.3   212  ARG212      0.2205
     66  NE        18.6230   -0.4070    6.8020 N.pl3 212  ARG212     -0.0865
     67  CZ        19.8060    0.1000    7.1310 C.cat 212  ARG212      0.5346
     68  NH1       20.8920   -0.2680    6.4460 N.pl3 212  ARG212      0.1354
     69  NH2       19.9090    0.9390    8.1650 N.pl3 212  ARG212      0.1354
     70  N         17.3580    4.8860    7.0450 N.3   214  CYS214     -0.1221
     71  CA        18.0940    4.9480    5.7910 C.3   214  CYS214      0.1808
     72  C         19.5820    4.6490    5.9280 C.2   214  CYS214      0.2602
     73  O         20.2910    5.2990    6.6980 O.2   214  CYS214     -0.2717
     74  CB        17.9020    6.2960    5.1220 C.3   214  CYS214      0.0970
     75  SG        18.4430    6.2360    3.3950 S.3   214  CYS214     -0.0800
     76  N         20.0340    3.6370    5.1920 N.am  215  GLY215     -0.1942
     77  CA        21.4260    3.2340    5.2510 C.3   215  GLY215      0.2014
     78  C         22.3880    3.9990    4.3650 C.2   215  GLY215      0.2639
     79  O         23.5390    4.2130    4.7590 O.2   215  GLY215     -0.2714
     80  N         21.9280    4.4360    3.1920 N.am  216  ASP216     -0.1957
     81  CA        22.7950    5.1450    2.2500 C.3   216  ASP216      0.1840
     82  C         22.2290    6.4330    1.6590 C.2   216  ASP216      0.2622
     83  O         22.5020    6.7610    0.5070 O.2   216  ASP216     -0.2715
     84  CB        23.1950    4.1930    1.1090 C.3   216  ASP216      0.1450
     85  CG        21.9900    3.6660    0.3100 C.2   216  ASP216      0.3671
     86  OD1       22.1810    2.7380   -0.5040 O.co2 216  ASP216     -0.2456
     87  OD2       20.8560    4.1620    0.4860 O.co2 216  ASP216     -0.2456
     88  N         21.4360    7.1590    2.4320 N.am  217  CYS217     -0.1954
     89  CA        20.8390    8.4000    1.9460 C.3   217  CYS217      0.1843
     90  C         21.8340    9.5080    1.6640 C.2   217  CYS217      0.2626
     91  O         22.9230    9.5340    2.2370 O.2   217  CYS217     -0.2714
     92  CB        19.8120    8.9130    2.9450 C.3   217  CYS217      0.0997
     93  SG        18.1840    8.1420    2.7360 S.3   217  CYS217     -0.0797
     94  N         21.4600   10.4060    0.7540 N.am  218  SER218     -0.1950
     95  CA        22.2950   11.5560    0.4280 C.3   218  SER218      0.1924
     96  C         22.1790   12.4430    1.6540 C.2   218  SER218      0.2314
     97  O         21.0730   12.7270    2.1160 O.2   218  SER218     -0.2863
     98  CB        21.7700   12.2800   -0.8140 C.3   218  SER218      0.2116
     99  OG        21.9190   11.4700   -1.9710 O.3   218  SER218     -0.2180
    100  N         23.5550   -1.7910   11.5550 N.3   272  PHE272     -0.1241
    101  CA        24.2940   -1.5830   10.3140 C.3   272  PHE272      0.1605
    102  C         25.2580   -0.4300   10.4680 C.2   272  PHE272      0.2264
    103  O         25.2660    0.2830   11.4770 O.2   272  PHE272     -0.2867
    104  CB        23.3420   -1.1680    9.1800 C.3   272  PHE272      0.0534
    105  CG        22.4120   -2.2390    8.7300 C.ar  272  PHE272     -0.0203
    106  CD1       22.6610   -2.9360    7.5480 C.ar  272  PHE272     -0.0042
    107  CD2       21.2760   -2.5500    9.4700 C.ar  272  PHE272     -0.0042
    108  CE1       21.7910   -3.9310    7.1120 C.ar  272  PHE272     -0.0003
    109  CE2       20.4000   -3.5520    9.0370 C.ar  272  PHE272     -0.0003
    110  CZ        20.6640   -4.2400    7.8550 C.ar  272  PHE272     -0.0000
    111  N         25.5660    8.6930    0.7070 N.3   277  LYS277     -0.1245
    112  CA        25.4760    8.2810   -0.6910 C.3   277  LYS277      0.1561
    113  C         26.7840    8.5640   -1.4400 C.2   277  LYS277      0.2260
    114  O         27.2790    9.6930   -1.4410 O.2   277  LYS277     -0.2867
    115  CB        24.3240    9.0170   -1.3750 C.3   277  LYS277      0.0271
    116  CG        24.0750    8.5800   -2.8000 C.3   277  LYS277      0.0035
    117  CD        23.2180    7.3420   -2.8710 C.3   277  LYS277      0.0206
    118  CE        21.7670    7.6750   -2.5890 C.3   277  LYS277      0.1093
    119  NZ        20.9550    6.4480   -2.6310 N.3   277  LYS277     -0.1314
    120  N         26.5890    0.1620    2.7330 N.3   282  THR282     -0.1218
    121  CA        26.1340   -0.1860    4.0760 C.3   282  THR282      0.1862
    122  C         26.3880   -1.6480    4.3820 C.2   282  THR282      0.2287
    123  O         25.9940   -2.5300    3.6100 O.2   282  THR282     -0.2866
    124  CB        24.6270    0.0950    4.2570 C.3   282  THR282      0.1770
    125  OG1       23.8560   -0.8120    3.4520 O.3   282  THR282     -0.2211
    126  CG2       24.3180    1.5020    3.8310 C.3   282  THR282      0.0375
@<TRIPOS>BOND
     1     1     2    1
     2     5     2    1
     3     5     6    1
     4     2     3    1
     5   117   116    1
     6   117   118    1
     7   116   115    1
     8   119   118    1
     9     6     8   ar
    10     6     7   ar
    11    99    98    1
    12     3     4    2
    13   114   113    2
    14   113   112    1
    15   115   112    1
    16     9    10    1
    17    98    95    1
    18   112   111    1
    19    86    85   ar
    20    12    11    2
    21    15    14   ar
    22    85    87   ar
    23    85    84    1
    24    95    94    1
    25    95    96    1
    26    83    82    2
    27    10    13    1
    28    10    11    1
    29    16    14   ar
    30    14    13    1
    31    94    90   am
    32    32    31    1
    33    84    81    1
    34    31    30    1
    35    24    25    1
    36    96    97    2
    37    82    81    1
    38    82    88   am
    39    90    89    1
    40    90    91    2
    41    89    88    1
    42    89    92    1
    43    81    80    1
    44    28    25    1
    45    28    29    1
    46    27    26    2
    47    22    21    1
    48   120   121    1
    49    93    92    1
    50    93    75    1
    51    25    26    1
    52    30    29    1
    53    49    47   am
    54    80    78   am
    55    38    39    1
    56    38    37    1
    57    75    74    1
    58    21    23    1
    59    21    18    1
    60   125   124    1
    61   123   122    2
    62    39    40    2
    63    39    41   am
    64   126   124    1
    65    47    48    2
    66    47    46    1
    67   121   124    1
    68   121   122    1
    69    37    34    1
    70    78    79    2
    71    78    77    1
    72    17    18    1
    73    18    19    1
    74    46    43    1
    75    58    57    1
    76    74    71    1
    77    76    77    1
    78    76    72   am
    79    50    51    1
    80    34    33    1
    81    34    35    1
    82    20    19    2
    83    71    72    1
    84    71    70    1
    85    72    73    2
    86    43    42    1
    87    43    44    1
    88    53    52    2
    89    68    67    1
    90    64    63    1
    91    64    65    1
    92    36    35    2
    93    57    56    1
    94    55    56    1
    95    55    54    1
    96    51    54    1
    97    51    52    1
    98    66    67    2
    99    66    65    1
   100    63    60    1
   101    45    44    2
   102   108   106   ar
   103   108   110   ar
   104    67    69    1
   105   106   105   ar
   106    62    61    2
   107   110   109   ar
   108    60    61    1
   109    60    59    1
   110   105   104    1
   111   105   107   ar
   112   109   107   ar
   113   104   101    1
   114   101   102    1
   115   101   100    1
   116   102   103    2
