@<TRIPOS>MOLECULE
tmp/3b92A00.pdb
 140 137 0 0 0
SMALL
GASTEIGER

@<TRIPOS>ATOM
      1  N         -5.2000   54.5770   79.0980 N.3   131  GLY131     -0.1210
      2  CA        -5.0650   55.9320   79.6040 C.3   131  GLY131      0.1956
      3  C         -3.6640   56.2520   80.0950 C.2   131  GLY131      0.2613
      4  O         -3.4740   57.1870   80.8730 O.2   131  GLY131     -0.2717
      5  N         -2.6850   55.4710   79.6440 N.am  132  THR132     -0.1938
      6  CA        -1.2890   55.7130   79.9930 C.3   132  THR132      0.2028
      7  C         -0.7210   56.9340   79.2870 C.2   132  THR132      0.2642
      8  O         -0.8620   57.0850   78.0740 O.2   132  THR132     -0.2714
      9  CB        -0.4110   54.5040   79.6450 C.3   132  THR132      0.1808
     10  OG1       -0.6430   53.4590   80.5960 O.3   132  THR132     -0.2208
     11  CG2        1.0510   54.8900   79.6510 C.3   132  THR132      0.0379
     12  N         -0.0700   57.8030   80.0520 N.am  133  LEU133     -0.1963
     13  CA         0.3790   59.0850   79.5290 C.3   133  LEU133      0.1728
     14  C          1.8980   59.1600   79.3750 C.2   133  LEU133      0.2617
     15  O          2.4240   59.9760   78.6100 O.2   133  LEU133     -0.2715
     16  CB        -0.1140   60.2010   80.4520 C.3   133  LEU133      0.0311
     17  CG        -1.6380   60.2640   80.5690 C.3   133  LEU133      0.0022
     18  CD1       -2.0370   60.8340   81.9180 C.3   133  LEU133      0.0001
     19  CD2       -2.1980   61.0990   79.4310 C.3   133  LEU133      0.0001
     20  N          2.5990   58.3010   80.1050 N.am  134  GLY134     -0.1940
     21  CA         4.0470   58.3410   80.0940 C.3   134  GLY134      0.2014
     22  C          4.6390   57.4070   81.1230 C.2   134  GLY134      0.2638
     23  O          3.9090   56.7230   81.8500 O.2   134  GLY134     -0.2714
     24  N          5.9650   57.3850   81.1900 N.am  135  LEU135     -0.1977
     25  CA         6.6800   56.4510   82.0450 C.3   135  LEU135      0.1596
     26  C          8.1080   56.9510   82.2090 C.2   135  LEU135      0.2287
     27  O          8.6270   57.6720   81.3510 O.2   135  LEU135     -0.2864
     28  CB         6.6850   55.0650   81.4030 C.3   135  LEU135      0.0297
     29  CG         7.3450   53.9010   82.1460 C.3   135  LEU135      0.0022
     30  CD1        6.4960   53.4960   83.3460 C.3   135  LEU135      0.0001
     31  CD2        7.4860   52.7250   81.1890 C.3   135  LEU135      0.0001
     32  N         -2.4960   69.6860   81.3640 N.3   183  GLU183     -0.1245
     33  CA        -2.3140   68.2660   81.6500 C.3   183  GLU183      0.1567
     34  C         -0.9250   67.7630   81.2690 C.2   183  GLU183      0.2260
     35  O         -0.3300   66.9570   81.9810 O.2   183  GLU183     -0.2867
     36  CB        -3.3760   67.4300   80.9320 C.3   183  GLU183      0.0388
     37  CG        -4.7000   67.3790   81.6560 C.3   183  GLU183      0.1160
     38  CD        -5.8110   66.7750   80.8160 C.2   183  GLU183      0.3649
     39  OE1       -5.8900   67.0820   79.6030 O.co2 183  GLU183     -0.2457
     40  OE2       -6.6030   65.9920   81.3800 O.co2 183  GLU183     -0.2457
     41  N          1.5900   68.4030   83.9380 N.3   186  LEU186     -0.1231
     42  CA         1.5280   67.4730   85.0690 C.3   186  LEU186      0.1693
     43  C          2.1060   66.1080   84.7180 C.2   186  LEU186      0.2591
     44  O          2.7400   65.4600   85.5570 O.2   186  LEU186     -0.2718
     45  CB         0.0720   67.3040   85.5310 C.3   186  LEU186      0.0284
     46  CG        -0.6090   68.5560   86.0900 C.3   186  LEU186      0.0019
     47  CD1       -2.1150   68.3700   86.1840 C.3   186  LEU186      0.0001
     48  CD2       -0.0110   68.8500   87.4480 C.3   186  LEU186      0.0001
     49  N          1.8850   65.6560   83.4840 N.am  187  VAL187     -0.1980
     50  CA         2.4670   64.3870   83.0720 C.3   187  VAL187      0.1595
     51  C          3.9930   64.4540   83.1650 C.2   187  VAL187      0.2287
     52  O          4.6290   63.5490   83.7100 O.2   187  VAL187     -0.2864
     53  CB         2.0620   63.9950   81.6290 C.3   187  VAL187      0.0276
     54  CG1        2.7870   62.7200   81.2220 C.3   187  VAL187      0.0022
     55  CG2        0.5600   63.7710   81.5500 C.3   187  VAL187      0.0022
     56  N          5.3730   64.6330   86.6860 N.3   190  HIS190     -0.1226
     57  CA         5.2370   63.3570   87.3780 C.3   190  HIS190      0.1752
     58  C          6.2930   62.3900   86.8460 C.2   190  HIS190      0.2595
     59  O          6.9600   61.6940   87.6110 O.2   190  HIS190     -0.2718
     60  CB         3.8040   62.8430   87.1460 C.3   190  HIS190      0.0759
     61  CG         3.5880   61.3900   87.4430 C.ar  190  HIS190      0.0818
     62  ND1        2.5760   60.9520   88.2680 N.ar  190  HIS190     -0.2268
     63  CD2        4.1750   60.2740   86.9460 C.ar  190  HIS190      0.1154
     64  CE1        2.5450   59.6310   88.2640 C.ar  190  HIS190      0.1986
     65  NE2        3.5050   59.1930   87.4690 N.ar  190  HIS190     -0.2212
     66  N          6.4570   62.3580   85.5290 N.am  191  GLU191     -0.1979
     67  CA         7.4950   61.5280   84.9380 C.3   191  GLU191      0.1602
     68  C          8.8890   61.9560   85.3900 C.2   191  GLU191      0.2287
     69  O          9.7190   61.1130   85.6980 O.2   191  GLU191     -0.2864
     70  CB         7.3950   61.5570   83.4060 C.3   191  GLU191      0.0415
     71  CG         6.1370   60.8920   82.8760 C.3   191  GLU191      0.1163
     72  CD         5.8200   59.5930   83.6110 C.2   191  GLU191      0.3649
     73  OE1        6.7690   58.9280   84.0830 O.co2 191  GLU191     -0.2457
     74  OE2        4.6270   59.2340   83.7160 O.co2 191  GLU191     -0.2457
     75  N          9.4700   60.7800   88.9530 N.3   194  HIS194     -0.1241
     76  CA        10.0610   59.4500   89.0640 C.3   194  HIS194      0.1621
     77  C         11.5850   59.4990   88.8850 C.2   194  HIS194      0.2264
     78  O         12.3210   58.8960   89.6760 O.2   194  HIS194     -0.2867
     79  CB         9.4410   58.4970   88.0350 C.3   194  HIS194      0.0745
     80  CG         8.0920   57.9800   88.4270 C.ar  194  HIS194      0.0817
     81  ND1        7.7910   57.5830   89.7130 N.ar  194  HIS194     -0.2268
     82  CD2        6.9660   57.7870   87.7010 C.ar  194  HIS194      0.1154
     83  CE1        6.5380   57.1690   89.7620 C.ar  194  HIS194      0.1986
     84  NE2        6.0140   57.2830   88.5550 N.ar  194  HIS194     -0.2212
     85  N          4.9970   56.5490   93.2650 N.3   200  HIS200     -0.1241
     86  CA         3.6180   57.0080   93.3460 C.3   200  HIS200      0.1621
     87  C          3.2130   57.1780   94.8060 C.2   200  HIS200      0.2264
     88  O          3.7120   56.4820   95.6940 O.2   200  HIS200     -0.2867
     89  CB         2.6760   56.0250   92.6630 C.3   200  HIS200      0.0745
     90  CG         2.8390   55.9770   91.1800 C.ar  200  HIS200      0.0817
     91  ND1        2.9870   54.7960   90.4860 N.ar  200  HIS200     -0.2268
     92  CD2        2.9030   56.9670   90.2600 C.ar  200  HIS200      0.1154
     93  CE1        3.1350   55.0620   89.2000 C.ar  200  HIS200      0.1986
     94  NE2        3.0880   56.3720   89.0370 N.ar  200  HIS200     -0.2212
     95  N          0.6360   65.2580   92.5940 N.3   219  VAL219     -0.1245
     96  CA         0.9990   64.9600   91.2120 C.3   219  VAL219      0.1561
     97  C          1.5480   63.5370   91.0030 C.2   219  VAL219      0.2260
     98  O          1.5080   63.0110   89.8850 O.2   219  VAL219     -0.2867
     99  CB         2.0230   66.0010   90.6690 C.3   219  VAL219      0.0252
    100  CG1        3.4130   65.7500   91.2620 C.3   219  VAL219      0.0019
    101  CG2        2.0520   65.9590   89.1480 C.3   219  VAL219      0.0019
    102  N          0.2070   60.8580   92.2410 N.3   221  TYR221     -0.1228
    103  CA        -0.8420   59.8630   92.3420 C.3   221  TYR221      0.1721
    104  C         -0.7820   58.9790   91.1010 C.2   221  TYR221      0.2437
    105  O         -0.5660   59.4650   89.9910 O.2   221  TYR221     -0.2733
    106  CB        -2.2170   60.5310   92.4320 C.3   221  TYR221      0.0547
    107  CG        -3.2880   59.6100   92.9800 C.ar  221  TYR221     -0.0200
    108  CD1       -3.2750   59.2170   94.3160 C.ar  221  TYR221     -0.0009
    109  CD2       -4.2920   59.1070   92.1580 C.ar  221  TYR221     -0.0009
    110  CE1       -4.2260   58.3470   94.8160 C.ar  221  TYR221      0.0417
    111  CE2       -5.2510   58.2340   92.6530 C.ar  221  TYR221      0.0417
    112  CZ        -5.2120   57.8590   93.9790 C.ar  221  TYR221      0.1957
    113  OH        -6.1630   56.9960   94.4720 O.3   221  TYR221     -0.2866
    114  N         -0.9710   57.6660   91.2770 N.am  222  PRO222     -0.2718
    115  CA        -0.8570   56.6990   90.1760 C.3   222  PRO222      0.1535
    116  C         -1.8800   56.9040   89.0490 C.2   222  PRO222      0.2598
    117  O         -1.5820   56.6790   87.8750 O.2   222  PRO222     -0.2715
    118  CB        -1.0100   55.3420   90.8670 C.3   222  PRO222      0.0310
    119  CG        -1.7040   55.6380   92.1710 C.3   222  PRO222      0.0237
    120  CD        -1.2830   57.0210   92.5680 C.3   222  PRO222      0.0939
    121  N         -3.0810   57.3410   89.4070 N.am  223  ILE223     -0.1964
    122  CA        -4.1020   57.6690   88.4110 C.3   223  ILE223      0.1727
    123  C         -4.1010   59.1660   88.1140 C.2   223  ILE223      0.2616
    124  O         -4.0730   59.9880   89.0290 O.2   223  ILE223     -0.2715
    125  CB        -5.4950   57.2730   88.9150 C.3   223  ILE223      0.0290
    126  CG1       -5.5150   55.7830   89.2490 C.3   223  ILE223      0.0022
    127  CG2       -6.5420   57.5940   87.8570 C.3   223  ILE223      0.0023
    128  CD1       -6.8120   55.3170   89.9010 C.3   223  ILE223      0.0001
    129  N         -4.1400   59.5180   86.8340 N.am  224  ALA224     -0.1963
    130  CA        -3.9970   60.9070   86.4230 C.3   224  ALA224      0.1728
    131  C         -4.9700   61.8180   87.1590 C.2   224  ALA224      0.2616
    132  O         -6.1640   61.5360   87.2450 O.2   224  ALA224     -0.2715
    133  CB        -4.2080   61.0320   84.9240 C.3   224  ALA224      0.0334
    134  N         -4.4560   62.9160   87.6910 N.am  225  VAL225     -0.1977
    135  CA        -5.3120   63.9100   88.3130 C.3   225  VAL225      0.1596
    136  C         -5.9300   64.7890   87.2190 C.2   225  VAL225      0.2287
    137  O         -5.4090   64.8630   86.1070 O.2   225  VAL225     -0.2864
    138  CB        -4.5060   64.7550   89.3130 C.3   225  VAL225      0.0276
    139  CG1       -3.9670   63.8510   90.4100 C.3   225  VAL225      0.0022
    140  CG2       -3.3600   65.4570   88.6070 C.3   225  VAL225      0.0022
@<TRIPOS>BOND
     1     8     7    2
     2    15    14    2
     3     1     2    1
     4     7     6    1
     5     7    12   am
     6    14    13    1
     7    14    20   am
     8    19    17    1
     9    13    12    1
    10    13    16    1
    11    39    38   ar
    12     2     3    1
    13     5     6    1
    14     5     3   am
    15     9    11    1
    16     9     6    1
    17     9    10    1
    18    21    20    1
    19    21    22    1
    20     3     4    2
    21    16    17    1
    22    17    18    1
    23    38    40   ar
    24    38    37    1
    25    36    33    1
    26    36    37    1
    27    22    24   am
    28    22    23    2
    29    31    29    1
    30    24    25    1
    31    54    53    1
    32    34    33    1
    33    34    35    2
    34    27    26    2
    35    32    33    1
    36    28    25    1
    37    28    29    1
    38    55    53    1
    39    53    50    1
    40    25    26    1
    41    29    30    1
    42    71    70    1
    43    71    72    1
    44    50    51    1
    45    50    49    1
    46    51    52    2
    47    70    67    1
    48    49    43   am
    49    72    74   ar
    50    72    73   ar
    51    41    42    1
    52    43    42    1
    53    43    44    2
    54   133   130    1
    55    67    68    1
    56    67    66    1
    57    42    45    1
    58    68    69    2
    59    66    58   am
    60    45    46    1
    61    46    47    1
    62    46    48    1
    63   137   136    2
    64   130   129    1
    65   130   131    1
    66    56    57    1
    67   129   123   am
    68    58    57    1
    69    58    59    2
    70    63    61   ar
    71    63    65   ar
    72    60    57    1
    73    60    61    1
    74   131   132    2
    75   131   134   am
    76   136   135    1
    77    61    62   ar
    78    65    64   ar
    79   134   135    1
    80    82    80   ar
    81    82    84   ar
    82   127   125    1
    83   117   116    2
    84    79    80    1
    85    79    76    1
    86   123   122    1
    87   123   124    2
    88    64    62   ar
    89   135   138    1
    90   122   125    1
    91   122   121    1
    92    80    81   ar
    93    84    83   ar
    94   140   138    1
    95    77    76    1
    96    77    78    2
    97   125   126    1
    98    75    76    1
    99    94    93   ar
   100    94    92   ar
   101   116   121   am
   102   116   115    1
   103   101    99    1
   104    93    91   ar
   105   126   128    1
   106   138   139    1
   107    81    83   ar
   108    98    97    2
   109   105   104    2
   110   115   118    1
   111   115   114    1
   112    92    90   ar
   113    91    90   ar
   114    99    96    1
   115    99   100    1
   116   118   119    1
   117    97    96    1
   118   104   114   am
   119   104   103    1
   120    90    89    1
   121    96    95    1
   122   114   120    1
   123   109   111   ar
   124   109   107   ar
   125   119   120    1
   126   102   103    1
   127   103   106    1
   128   106   107    1
   129   111   112   ar
   130    89    86    1
   131   107   108   ar
   132    85    86    1
   133    86    87    1
   134   112   113    1
   135   112   110   ar
   136   108   110   ar
   137    87    88    2
