@<TRIPOS>MOLECULE
tmp/3b99B02.pdb
 202 196 0 0 0
SMALL
GASTEIGER

@<TRIPOS>ATOM
      1  N          9.9760  -11.0320   94.7030 N.3    75  THR75      -0.1218
      2  CA        10.8370   -9.9090   95.1080 C.3    75  THR75       0.1862
      3  C         12.0330   -9.6770   94.1920 C.2    75  THR75       0.2287
      4  O         12.2850   -8.5430   93.7830 O.2    75  THR75      -0.2866
      5  CB        11.3440  -10.0830   96.5770 C.3    75  THR75       0.1770
      6  OG1       10.2440  -10.3880   97.4430 O.3    75  THR75      -0.2211
      7  CG2       12.0190   -8.8170   97.0860 C.3    75  THR75       0.0375
      8  N         10.9580   -8.2100   90.8560 N.3    78  ALA78      -0.1231
      9  CA        10.4700   -6.8410   91.1210 C.3    78  ALA78       0.1694
     10  C         11.6200   -5.8540   91.3630 C.2    78  ALA78       0.2591
     11  O         11.5780   -4.7140   90.8960 O.2    78  ALA78      -0.2718
     12  CB         9.4980   -6.8250   92.2960 C.3    78  ALA78       0.0304
     13  N         12.6420   -6.3220   92.0810 N.am   79  GLN79      -0.1979
     14  CA        13.8440   -5.5550   92.3990 C.3    79  GLN79       0.1601
     15  C         14.5600   -5.1140   91.1360 C.2    79  GLN79       0.2287
     16  O         15.0060   -3.9720   91.0360 O.2    79  GLN79      -0.2864
     17  CB        14.7800   -6.4200   93.2410 C.3    79  GLN79       0.0394
     18  CG        15.5660   -5.6960   94.3100 C.3    79  GLN79       0.0908
     19  CD        16.0890   -6.6570   95.3750 C.2    79  GLN79       0.2608
     20  OE1       16.7070   -7.6850   95.0650 O.2    79  GLN79      -0.2717
     21  NE2       15.8360   -6.3270   96.6380 N.am   79  GLN79      -0.0878
     22  N         13.1330   -4.9890   88.1150 N.3    81  LEU81      -0.1231
     23  CA        12.2150   -4.1490   87.3570 C.3    81  LEU81       0.1693
     24  C         12.2280   -2.6840   87.7970 C.2    81  LEU81       0.2591
     25  O         12.2150   -1.7850   86.9470 O.2    81  LEU81      -0.2718
     26  CB        10.7870   -4.7170   87.3650 C.3    81  LEU81       0.0284
     27  CG        10.4790   -5.9660   86.5170 C.3    81  LEU81       0.0019
     28  CD1        8.9870   -6.2060   86.4820 C.3    81  LEU81       0.0001
     29  CD2       11.0180   -5.8650   85.0840 C.3    81  LEU81       0.0001
     30  N         12.2620   -2.4260   89.1020 N.am   82  MET82      -0.1979
     31  CA        12.2580   -1.0290   89.5470 C.3    82  MET82       0.1605
     32  C         13.5990   -0.3040   89.3290 C.2    82  MET82       0.2287
     33  O         13.6200    0.9150   89.1690 O.2    82  MET82      -0.2864
     34  CB        11.7210   -0.8620   90.9730 C.3    82  MET82       0.0413
     35  CG        12.5940   -1.4050   92.0710 C.3    82  MET82       0.0598
     36  SD        12.0930   -0.7000   93.6520 S.3    82  MET82      -0.1393
     37  CE        13.1990   -1.5880   94.7520 C.3    82  MET82       0.0692
     38  N         13.2930    0.4930   85.3260 N.3    85  ILE85      -0.1231
     39  CA        12.2010    1.4080   84.9890 C.3    85  ILE85       0.1692
     40  C         12.1670    2.6860   85.8560 C.2    85  ILE85       0.2592
     41  O         12.0100    3.8010   85.3320 O.2    85  ILE85      -0.2718
     42  CB        10.8210    0.6830   85.0650 C.3    85  ILE85       0.0266
     43  CG1       10.7760   -0.5110   84.1130 C.3    85  ILE85       0.0019
     44  CG2        9.6740    1.6450   84.7690 C.3    85  ILE85       0.0020
     45  CD1        9.6410   -1.4950   84.4280 C.3    85  ILE85       0.0001
     46  N         12.3010    2.5140   87.1710 N.am   86  PHE86      -0.1976
     47  CA        12.1510    3.6220   88.1170 C.3    86  PHE86       0.1639
     48  C         13.4790    4.1020   88.7140 C.2    86  PHE86       0.2290
     49  O         13.4910    5.0380   89.5170 O.2    86  PHE86      -0.2864
     50  CB        11.1630    3.2580   89.2400 C.3    86  PHE86       0.0560
     51  CG         9.7830    2.9480   88.7530 C.ar   86  PHE86      -0.0200
     52  CD1        8.8450    3.9630   88.5910 C.ar   86  PHE86      -0.0042
     53  CD2        9.4130    1.6360   88.4550 C.ar   86  PHE86      -0.0042
     54  CE1        7.5560    3.6750   88.1270 C.ar   86  PHE86      -0.0003
     55  CE2        8.1350    1.3410   87.9950 C.ar   86  PHE86      -0.0003
     56  CZ         7.2050    2.3610   87.8260 C.ar   86  PHE86      -0.0000
     57  N         15.9840   -0.2050   97.1150 N.3    90  LEU90      -0.1245
     58  CA        15.3550   -0.1110   98.4380 C.3    90  LEU90       0.1561
     59  C         15.9840   -1.0800   99.4480 C.2    90  LEU90       0.2260
     60  O         15.3690   -2.0900   99.8130 O.2    90  LEU90      -0.2867
     61  CB        13.8280   -0.2820   98.3510 C.3    90  LEU90       0.0270
     62  CG        12.9730    0.8770   97.8070 C.3    90  LEU90       0.0019
     63  CD1       11.5420    0.4370   97.5210 C.3    90  LEU90       0.0001
     64  CD2       12.9770    2.0710   98.7500 C.3    90  LEU90       0.0001
     65  N         14.3730   -3.0550  102.5920 N.3    93  HIS93      -0.1241
     66  CA        12.9380   -2.7860  102.5570 C.3    93  HIS93       0.1621
     67  C         12.1690   -4.0650  102.8750 C.2    93  HIS93       0.2264
     68  O         12.5280   -5.1450  102.4110 O.2    93  HIS93      -0.2867
     69  CB        12.5460   -2.2670  101.1660 C.3    93  HIS93       0.0745
     70  CG        11.1390   -1.7580  101.0630 C.ar   93  HIS93       0.0817
     71  ND1       10.8340   -0.5320  100.5140 N.ar   93  HIS93      -0.2268
     72  CD2        9.9550   -2.3110  101.4190 C.ar   93  HIS93       0.1154
     73  CE1        9.5260   -0.3500  100.5410 C.ar   93  HIS93       0.1986
     74  NE2        8.9690   -1.4130  101.0900 N.ar   93  HIS93      -0.2212
     75  N          8.7430   -5.7880  102.1250 N.3    95  PRO95      -0.2116
     76  CA         7.5310   -5.7440  101.2990 C.3    95  PRO95       0.1372
     77  C          6.2940   -6.1830  102.0760 C.2    95  PRO95       0.2244
     78  O          5.1910   -5.7160  101.7940 O.2    95  PRO95      -0.2868
     79  CB         7.8150   -6.7500  100.1730 C.3    95  PRO95       0.0268
     80  CG         9.2500   -7.1370  100.3070 C.3    95  PRO95       0.0207
     81  CD         9.6650   -6.8600  101.7070 C.3    95  PRO95       0.0892
     82  N          4.3870   -3.3520  103.9540 N.3    98  GLU98      -0.1231
     83  CA         3.7610   -2.4420  103.0090 C.3    98  GLU98       0.1699
     84  C          2.5390   -3.0420  102.3260 C.2    98  GLU98       0.2592
     85  O          1.5210   -2.3610  102.2120 O.2    98  GLU98      -0.2718
     86  CB         4.7640   -1.9170  101.9790 C.3    98  GLU98       0.0402
     87  CG         4.8730   -2.7350  100.6970 C.3    98  GLU98       0.1161
     88  CD         6.0050   -2.2840   99.7920 C.2    98  GLU98       0.3649
     89  OE1        6.4430   -3.1120   98.9750 O.co2  98  GLU98      -0.2457
     90  OE2        6.4610   -1.1230   99.8930 O.co2  98  GLU98      -0.2457
     91  N          2.6280   -4.3030  101.8870 N.am   99  LYS99      -0.1980
     92  CA         1.5130   -4.9310  101.1660 C.3    99  LYS99       0.1596
     93  C          0.2510   -4.9840  102.0240 C.2    99  LYS99       0.2287
     94  O         -0.8530   -4.7560  101.5220 O.2    99  LYS99      -0.2864
     95  CB         1.8670   -6.3170  100.5860 C.3    99  LYS99       0.0298
     96  CG         2.4660   -7.3300  101.5650 C.3    99  LYS99       0.0038
     97  CD         2.1880   -8.7980  101.1750 C.3    99  LYS99       0.0206
     98  CE         3.3090   -9.7280  101.6870 C.3    99  LYS99       0.1093
     99  NZ         2.8760  -11.1230  102.0110 N.3    99  LYS99      -0.1314
    100  N         -0.5070   -2.9580  104.6320 N.3   101  ARG101     -0.1231
    101  CA        -1.0320   -1.5970  104.7960 C.3   101  ARG101      0.1694
    102  C         -1.8260   -1.1830  103.5690 C.2   101  ARG101      0.2591
    103  O         -2.9050   -0.5980  103.7000 O.2   101  ARG101     -0.2718
    104  CB         0.0860   -0.5810  105.0370 C.3   101  ARG101      0.0321
    105  CG         0.4660   -0.3670  106.4990 C.3   101  ARG101      0.0489
    106  CD         1.2510    0.9420  106.6670 C.3   101  ARG101      0.2205
    107  NE         2.2320    1.1500  105.5930 N.pl3 101  ARG101     -0.0865
    108  CZ         3.4420    0.5970  105.5560 C.cat 101  ARG101      0.5346
    109  NH1        3.8560   -0.1980  106.5320 N.pl3 101  ARG101      0.1354
    110  NH2        4.2450    0.8420  104.5380 N.pl3 101  ARG101      0.1354
    111  N         -1.2770   -1.4870  102.3900 N.am  102  ALA102     -0.1980
    112  CA        -1.9420   -1.2270  101.1240 C.3   102  ALA102      0.1597
    113  C         -3.3040   -1.9180  101.0910 C.2   102  ALA102      0.2287
    114  O         -4.2930   -1.3210  100.6660 O.2   102  ALA102     -0.2864
    115  CB        -1.0790   -1.6730   99.9640 C.3   102  ALA102      0.0319
    116  N          7.5510    2.7740   79.4690 N.3   168  LEU168     -0.1245
    117  CA         7.7400    1.8140   80.5650 C.3   168  LEU168      0.1561
    118  C          8.0870    0.4040   80.0680 C.2   168  LEU168      0.2260
    119  O          9.0060   -0.2270   80.6070 O.2   168  LEU168     -0.2867
    120  CB         6.5310    1.7870   81.5200 C.3   168  LEU168      0.0270
    121  CG         6.6880    0.9350   82.7900 C.3   168  LEU168      0.0019
    122  CD1        6.0110    1.5720   84.0090 C.3   168  LEU168      0.0001
    123  CD2        6.1960   -0.4850   82.5860 C.3   168  LEU168      0.0001
    124  N         -2.0950    6.9250  103.7180 N.3   193  TRP193     -0.1241
    125  CA        -1.3670    5.7480  103.2330 C.3   193  TRP193      0.1605
    126  C          0.0300    6.1260  102.7400 C.2   193  TRP193      0.2264
    127  O          1.0400    5.6510  103.2780 O.2   193  TRP193     -0.2867
    128  CB        -2.1470    5.0330  102.1230 C.3   193  TRP193      0.0550
    129  CG        -1.3530    3.9580  101.4390 C.ar  193  TRP193      0.0003
    130  CD1       -1.0070    2.7400  101.9530 C.ar  193  TRP193      0.0946
    131  CD2       -0.7870    4.0120  100.1220 C.ar  193  TRP193      0.0152
    132  NE1       -0.2630    2.0360  101.0390 N.ar  193  TRP193     -0.2442
    133  CE2       -0.1180    2.7910   99.9050 C.ar  193  TRP193      0.0810
    134  CE3       -0.7840    4.9740   99.1040 C.ar  193  TRP193      0.0012
    135  CZ2        0.5480    2.5050   98.7100 C.ar  193  TRP193      0.0191
    136  CZ3       -0.1180    4.6870   97.9140 C.ar  193  TRP193      0.0001
    137  CH2        0.5390    3.4650   97.7300 C.ar  193  TRP193      0.0015
    138  N          3.8250    5.0860  104.1140 N.3   197  TYR197     -0.1241
    139  CA         4.7900    4.4670  103.2040 C.3   197  TYR197      0.1605
    140  C          6.1660    5.1480  103.3260 C.2   197  TYR197      0.2264
    141  O          7.1800    4.4740  103.5410 O.2   197  TYR197     -0.2867
    142  CB         4.2690    4.5160  101.7560 C.3   197  TYR197      0.0534
    143  CG         5.2660    4.0740  100.6990 C.ar  197  TYR197     -0.0201
    144  CD1        5.6930    2.7480  100.6240 C.ar  197  TYR197     -0.0009
    145  CD2        5.7780    4.9820   99.7720 C.ar  197  TYR197     -0.0009
    146  CE1        6.6110    2.3390   99.6610 C.ar  197  TYR197      0.0417
    147  CE2        6.6900    4.5860   98.8020 C.ar  197  TYR197      0.0417
    148  CZ         7.1050    3.2610   98.7530 C.ar  197  TYR197      0.1957
    149  OH         8.0090    2.8550   97.7980 O.3   197  TYR197     -0.2866
    150  N          7.1390    5.5260   91.6510 N.3   217  LEU217     -0.1231
    151  CA         6.7460    4.1220   91.6790 C.3   217  LEU217      0.1693
    152  C          5.2730    3.9930   92.0540 C.2   217  LEU217      0.2591
    153  O          4.4920    3.3650   91.3250 O.2   217  LEU217     -0.2718
    154  CB         7.6340    3.3150   92.6390 C.3   217  LEU217      0.0284
    155  CG         7.3020    1.8280   92.8680 C.3   217  LEU217      0.0019
    156  CD1        7.2750    1.0360   91.5630 C.3   217  LEU217      0.0001
    157  CD2        8.2660    1.1930   93.8550 C.3   217  LEU217      0.0001
    158  N          4.9030    4.6040   93.1800 N.am  218  GLN218     -0.1979
    159  CA         3.5190    4.5770   93.6750 C.3   218  GLN218      0.1601
    160  C          2.5730    5.2320   92.6900 C.2   218  GLN218      0.2287
    161  O          1.4290    4.7920   92.5040 O.2   218  GLN218     -0.2864
    162  CB         3.4090    5.2530   95.0480 C.3   218  GLN218      0.0394
    163  CG         4.3030    4.6430   96.1170 C.3   218  GLN218      0.0908
    164  CD         4.1090    3.1390   96.2710 C.2   218  GLN218      0.2608
    165  OE1        3.9350    2.4100   95.2870 O.2   218  GLN218     -0.2717
    166  NE2        4.1560    2.6650   97.5090 N.am  218  GLN218     -0.0878
    167  N          2.8980    5.1880   89.4340 N.3   220  TRP220     -0.1227
    168  CA         2.6080    4.2210   88.3810 C.3   220  TRP220      0.1737
    169  C          1.7530    3.0640   88.8730 C.2   220  TRP220      0.2595
    170  O          0.8090    2.6620   88.1800 O.2   220  TRP220     -0.2718
    171  CB         3.8640    3.6880   87.6890 C.3   220  TRP220      0.0564
    172  CG         3.4830    2.6200   86.7100 C.ar  220  TRP220      0.0003
    173  CD1        2.9600    2.8020   85.4610 C.ar  220  TRP220      0.0946
    174  CD2        3.5230    1.2050   86.9260 C.ar  220  TRP220      0.0152
    175  NE1        2.7020    1.5850   84.8760 N.ar  220  TRP220     -0.2442
    176  CE2        3.0300    0.5900   85.7560 C.ar  220  TRP220      0.0810
    177  CE3        3.9300    0.3990   87.9940 C.ar  220  TRP220      0.0012
    178  CZ2        2.9420   -0.7920   85.6170 C.ar  220  TRP220      0.0191
    179  CZ3        3.8480   -0.9850   87.8500 C.ar  220  TRP220      0.0001
    180  CH2        3.3610   -1.5620   86.6700 C.ar  220  TRP220      0.0015
    181  N          2.0980    2.5240   90.0470 N.am  221  VAL221     -0.1980
    182  CA         1.3070    1.4570   90.6820 C.3   221  VAL221      0.1595
    183  C         -0.1510    1.8530   90.8390 C.2   221  VAL221      0.2287
    184  O         -1.0400    1.0390   90.6040 O.2   221  VAL221     -0.2864
    185  CB         1.8740    1.0300   92.0630 C.3   221  VAL221      0.0276
    186  CG1        0.8480    0.2220   92.8480 C.3   221  VAL221      0.0022
    187  CG2        3.1600    0.2180   91.9030 C.3   221  VAL221      0.0022
    188  N          1.4910   -8.1250   79.2670 N.3   398  GLY398     -0.1210
    189  CA         2.2300   -8.3970   80.5020 C.3   398  GLY398      0.1956
    190  C          2.2160   -7.2970   81.5470 C.2   398  GLY398      0.2611
    191  O          2.5560   -7.5280   82.7060 O.2   398  GLY398     -0.2717
    192  N          1.8040   -6.0990   81.1570 N.am  399  PHE399     -0.1976
    193  CA         2.0270   -4.9300   82.0040 C.3   399  PHE399      0.1639
    194  C          0.8200   -4.4110   82.7690 C.2   399  PHE399      0.2290
    195  O          0.9600   -3.5150   83.6030 O.2   399  PHE399     -0.2864
    196  CB         2.6770   -3.8090   81.1960 C.3   399  PHE399      0.0560
    197  CG         4.0940   -4.1040   80.8180 C.ar  399  PHE399     -0.0200
    198  CD1        5.1410   -3.7300   81.6580 C.ar  399  PHE399     -0.0042
    199  CD2        4.3820   -4.7910   79.6480 C.ar  399  PHE399     -0.0042
    200  CE1        6.4670   -4.0100   81.3240 C.ar  399  PHE399     -0.0003
    201  CE2        5.6970   -5.0850   79.3060 C.ar  399  PHE399     -0.0003
    202  CZ         6.7490   -4.6910   80.1490 C.ar  399  PHE399     -0.0000
@<TRIPOS>BOND
     1   188   189    1
     2   201   199   ar
     3   201   202   ar
     4   116   117    1
     5   199   197   ar
     6   118   117    1
     7   118   119    2
     8   202   200   ar
     9   189   190    1
    10   117   120    1
    11   197   196    1
    12   197   198   ar
    13   192   190   am
    14   192   193    1
    15   196   193    1
    16   200   198   ar
    17   120   121    1
    18   190   191    2
    19   193   194    1
    20   123   121    1
    21   194   195    2
    22   121   122    1
    23    43    45    1
    24    43    42    1
    25    44    42    1
    26   175   173   ar
    27   175   176   ar
    28    39    42    1
    29    39    38    1
    30    39    40    1
    31    29    27    1
    32    41    40    2
    33   173   172   ar
    34   178   176   ar
    35   178   180   ar
    36   176   174   ar
    37    40    46   am
    38    28    27    1
    39    27    26    1
    40   180   179   ar
    41   172   174   ar
    42   172   171    1
    43   174   177   ar
    44    25    24    2
    45    46    47    1
    46    23    26    1
    47    23    24    1
    48    23    22    1
    49   171   168    1
    50    24    30   am
    51    56    55   ar
    52    56    54   ar
    53   179   177   ar
    54    55    53   ar
    55    47    48    1
    56    47    50    1
    57    54    52   ar
    58   170   169    2
    59   168   169    1
    60   168   167    1
    61    53    51   ar
    62    52    51   ar
    63    48    49    2
    64    51    50    1
    65   169   181   am
    66    30    31    1
    67    33    32    2
    68    32    31    1
    69    31    34    1
    70   181   182    1
    71   184   183    2
    72   182   183    1
    73   182   185    1
    74     8     9    1
    75    11    10    2
    76    34    35    1
    77    16    15    2
    78     9    10    1
    79     9    12    1
    80    15    14    1
    81   153   152    2
    82    10    13   am
    83   156   155    1
    84   150   151    1
    85   151   152    1
    86   151   154    1
    87   187   185    1
    88   152   158   am
    89   185   186    1
    90    35    36    1
    91    13    14    1
    92    14    17    1
    93   161   160    2
    94   154   155    1
    95   160   159    1
    96   155   157    1
    97   158   159    1
    98    17    18    1
    99    36    37    1
   100   159   162    1
   101     4     3    2
   102     3     2    1
   103    18    19    1
   104     1     2    1
   105   162   163    1
   106    20    19    2
   107     2     5    1
   108   165   164    2
   109    19    21   am
   110   163   164    1
   111   164   166   am
   112     5     7    1
   113     5     6    1
   114    57    58    1
   115    63    62    1
   116   137   136   ar
   117   137   135   ar
   118   149   148    1
   119    62    61    1
   120    62    64    1
   121   136   134   ar
   122    61    58    1
   123    58    59    1
   124   135   133   ar
   125   148   147   ar
   126   148   146   ar
   127   147   145   ar
   128    89    88   ar
   129   134   131   ar
   130    59    60    2
   131   146   144   ar
   132   145   143   ar
   133    88    90   ar
   134    88    87    1
   135   133   131   ar
   136   133   132   ar
   137   115   112    1
   138   131   129   ar
   139    79    80    1
   140    79    76    1
   141    80    81    1
   142    71    73   ar
   143    71    70   ar
   144    73    74   ar
   145    95    92    1
   146    95    96    1
   147   144   143   ar
   148   114   113    2
   149    87    86    1
   150   143   142    1
   151   132   130   ar
   152    70    69    1
   153    70    72   ar
   154    74    72   ar
   155   113   112    1
   156   112   111    1
   157    69    66    1
   158    92    91    1
   159    92    93    1
   160    97    96    1
   161    97    98    1
   162    76    77    1
   163    76    75    1
   164   129   130   ar
   165   129   128    1
   166    94    93    2
   167    98    99    1
   168    81    75    1
   169   142   139    1
   170    78    77    2
   171    91    84   am
   172    86    83    1
   173   128   125    1
   174    85    84    2
   175    84    83    1
   176   111   102   am
   177    68    67    2
   178    66    65    1
   179    66    67    1
   180   126   125    1
   181   126   127    2
   182    83    82    1
   183   139   140    1
   184   139   138    1
   185   125   124    1
   186   140   141    2
   187   102   103    2
   188   102   101    1
   189   110   108    1
   190   100   101    1
   191   101   104    1
   192   104   105    1
   193   108   107    2
   194   108   109    1
   195   107   106    1
   196   105   106    1
