@<TRIPOS>MOLECULE
tmp/3b99A01.pdb
 139 134 0 0 0
SMALL
GASTEIGER

@<TRIPOS>ATOM
      1  N         -3.2680  -12.8590   31.3670 N.3    74  GLN74      -0.1245
      2  CA        -3.9260  -12.5890   32.6550 C.3    74  GLN74       0.1566
      3  C         -2.9980  -12.9050   33.8380 C.2    74  GLN74       0.2260
      4  O         -3.0330  -12.2310   34.8710 O.2    74  GLN74      -0.2867
      5  CB        -5.2090  -13.4200   32.7750 C.3    74  GLN74       0.0367
      6  CG        -6.2140  -12.8980   33.7900 C.3    74  GLN74       0.0905
      7  CD        -7.3130  -13.9090   34.1240 C.2    74  GLN74       0.2608
      8  OE1       -7.0480  -14.9610   34.7120 O.2    74  GLN74      -0.2717
      9  NE2       -8.5490  -13.5870   33.7610 N.am   74  GLN74      -0.0878
     10  N         -0.2170  -10.6280   36.1690 N.3    77  TYR77      -0.1227
     11  CA        -0.8400   -9.5900   36.9780 C.3    77  TYR77       0.1736
     12  C         -1.5340  -10.2400   38.1700 C.2    77  TYR77       0.2595
     13  O         -1.3510   -9.8170   39.3220 O.2    77  TYR77      -0.2718
     14  CB        -1.8160   -8.7360   36.1610 C.3    77  TYR77       0.0548
     15  CG        -2.3350   -7.5410   36.9230 C.ar   77  TYR77      -0.0200
     16  CD1       -1.4840   -6.7870   37.7320 C.ar   77  TYR77      -0.0009
     17  CD2       -3.6760   -7.1540   36.8330 C.ar   77  TYR77      -0.0009
     18  CE1       -1.9540   -5.7040   38.4580 C.ar   77  TYR77       0.0417
     19  CE2       -4.1510   -6.0570   37.5430 C.ar   77  TYR77       0.0417
     20  CZ        -3.2780   -5.3370   38.3510 C.ar   77  TYR77       0.1957
     21  OH        -3.7200   -4.2390   39.0560 O.3    77  TYR77      -0.2866
     22  N         -2.3010  -11.2880   37.8730 N.am   78  ALA78      -0.1980
     23  CA        -2.9370  -12.1200   38.8900 C.3    78  ALA78       0.1597
     24  C         -1.9490  -12.5630   39.9680 C.2    78  ALA78       0.2287
     25  O         -2.3070  -12.5890   41.1330 O.2    78  ALA78      -0.2864
     26  CB        -3.6490  -13.3330   38.2450 C.3    78  ALA78       0.0319
     27  N         -1.1810   -9.3600   42.1500 N.3    81  LEU81      -0.1245
     28  CA        -2.3640   -9.1110   42.9620 C.3    81  LEU81       0.1561
     29  C         -2.5040  -10.1870   44.0350 C.2    81  LEU81       0.2260
     30  O         -2.8110   -9.8780   45.1860 O.2    81  LEU81      -0.2867
     31  CB        -3.6340   -9.0160   42.0990 C.3    81  LEU81       0.0270
     32  CG        -3.7830   -7.8130   41.1490 C.3    81  LEU81       0.0019
     33  CD1       -5.0670   -7.9330   40.3450 C.3    81  LEU81       0.0001
     34  CD2       -3.7420   -6.4590   41.8950 C.3    81  LEU81       0.0001
     35  N         -8.1110  -16.8880   49.4650 N.3   249  LEU249     -0.1245
     36  CA        -8.2070  -16.5470   48.0430 C.3   249  LEU249      0.1561
     37  C         -9.4910  -17.1030   47.4270 C.2   249  LEU249      0.2260
     38  O        -10.2050  -16.3800   46.7140 O.2   249  LEU249     -0.2867
     39  CB        -6.9880  -17.0530   47.2660 C.3   249  LEU249      0.0270
     40  CG        -7.0860  -17.0560   45.7310 C.3   249  LEU249      0.0019
     41  CD1       -7.1480  -15.6460   45.1160 C.3   249  LEU249      0.0001
     42  CD2       -5.9440  -17.8400   45.1520 C.3   249  LEU249      0.0001
     43  N        -12.7260  -15.3160   48.7290 N.3   252  TRP252     -0.1227
     44  CA       -13.0210  -14.0750   48.0160 C.3   252  TRP252      0.1737
     45  C        -13.5710  -14.3160   46.6170 C.2   252  TRP252      0.2595
     46  O        -14.5160  -13.6600   46.1830 O.2   252  TRP252     -0.2718
     47  CB       -11.8050  -13.1180   47.9500 C.3   252  TRP252      0.0564
     48  CG       -12.1300  -11.8730   47.1270 C.ar  252  TRP252      0.0003
     49  CD1      -12.9170  -10.8210   47.5050 C.ar  252  TRP252      0.0946
     50  CD2      -11.7320  -11.6090   45.7760 C.ar  252  TRP252      0.0152
     51  NE1      -13.0200   -9.9010   46.4740 N.ar  252  TRP252     -0.2442
     52  CE2      -12.3030  -10.3650   45.4030 C.ar  252  TRP252      0.0810
     53  CE3      -10.9470  -12.3010   44.8440 C.ar  252  TRP252      0.0012
     54  CZ2      -12.1010   -9.7980   44.1450 C.ar  252  TRP252      0.0191
     55  CZ3      -10.7480  -11.7330   43.5870 C.ar  252  TRP252      0.0001
     56  CH2      -11.3230  -10.5010   43.2490 C.ar  252  TRP252      0.0015
     57  N        -12.9690  -15.2580   45.9100 N.am  253  VAL253     -0.1980
     58  CA       -13.3630  -15.5510   44.5420 C.3   253  VAL253      0.1595
     59  C        -14.8150  -15.9810   44.4900 C.2   253  VAL253      0.2287
     60  O        -15.5230  -15.6450   43.5390 O.2   253  VAL253     -0.2864
     61  CB       -12.4570  -16.6440   43.9040 C.3   253  VAL253      0.0276
     62  CG1      -13.1240  -17.2620   42.6840 C.3   253  VAL253      0.0022
     63  CG2      -11.1130  -16.0680   43.5380 C.3   253  VAL253      0.0022
     64  N        -17.3200  -12.8910   47.2390 N.3   256  GLY256     -0.1210
     65  CA       -17.1290  -11.4340   47.2890 C.3   256  GLY256      0.1956
     66  C        -18.0090  -10.5710   46.3970 C.2   256  GLY256      0.2611
     67  O        -17.8350   -9.3490   46.3570 O.2   256  GLY256     -0.2717
     68  N        -18.9500  -11.1980   45.6850 N.am  257  ASN257     -0.1974
     69  CA       -19.8220  -10.4940   44.7430 C.3   257  ASN257      0.1688
     70  C        -21.3130  -10.7190   44.9600 C.2   257  ASN257      0.2292
     71  O        -22.0990   -9.7710   44.8880 O.2   257  ASN257     -0.2864
     72  CB       -19.4920  -10.8930   43.3000 C.3   257  ASN257      0.1181
     73  CG       -18.2760  -10.1730   42.7450 C.2   257  ASN257      0.2629
     74  OD1      -17.9350   -9.0570   43.1600 O.2   257  ASN257     -0.2716
     75  ND2      -17.6280  -10.8030   41.7730 N.am  257  ASN257     -0.0877
     76  N        -16.2150   -4.9100   36.8730 N.3   303  ALA303     -0.1231
     77  CA       -14.8920   -5.5150   36.7450 C.3   303  ALA303      0.1694
     78  C        -14.0430   -4.7560   35.7280 C.2   303  ALA303      0.2592
     79  O        -14.5050   -4.4450   34.6220 O.2   303  ALA303     -0.2718
     80  CB       -15.0210   -6.9760   36.3230 C.3   303  ALA303      0.0304
     81  N        -12.8060   -4.4590   36.1010 N.am  304  LEU304     -0.1966
     82  CA       -11.8600   -3.8880   35.1580 C.3   304  LEU304      0.1728
     83  C        -11.0100   -5.0310   34.6170 C.2   304  LEU304      0.2616
     84  O         -9.9860   -5.4060   35.2000 O.2   304  LEU304     -0.2715
     85  CB       -10.9940   -2.8070   35.8190 C.3   304  LEU304      0.0311
     86  CG       -10.1040   -1.9560   34.8970 C.3   304  LEU304      0.0022
     87  CD1      -10.8910   -1.0940   33.9020 C.3   304  LEU304      0.0001
     88  CD2       -9.1630   -1.0940   35.6970 C.3   304  LEU304      0.0001
     89  N        -11.4670   -5.6150   33.5140 N.am  305  ILE305     -0.1963
     90  CA       -10.7490   -6.7220   32.8870 C.3   305  ILE305      0.1727
     91  C         -9.3600   -6.2450   32.4240 C.2   305  ILE305      0.2617
     92  O         -9.2450   -5.4010   31.5410 O.2   305  ILE305     -0.2715
     93  CB       -11.5690   -7.3420   31.7300 C.3   305  ILE305      0.0290
     94  CG1      -12.9730   -7.6860   32.2320 C.3   305  ILE305      0.0022
     95  CG2      -10.8780   -8.5700   31.1770 C.3   305  ILE305      0.0023
     96  CD1      -14.0350   -7.8460   31.1610 C.3   305  ILE305      0.0001
     97  N         -8.3110   -6.7960   33.0320 N.am  306  THR306     -0.1937
     98  CA        -6.9530   -6.3070   32.8140 C.3   306  THR306      0.2028
     99  C         -6.0400   -7.3970   32.2570 C.2   306  THR306      0.2642
    100  O         -6.1530   -8.5670   32.6370 O.2   306  THR306     -0.2714
    101  CB        -6.3930   -5.7000   34.1220 C.3   306  THR306      0.1808
    102  OG1       -7.2610   -4.6440   34.5610 O.3   306  THR306     -0.2208
    103  CG2       -5.0070   -5.1430   33.9260 C.3   306  THR306      0.0379
    104  N         -5.1460   -7.0080   31.3440 N.am  307  ARG307     -0.1977
    105  CA        -4.2010   -7.9340   30.7190 C.3   307  ARG307      0.1597
    106  C         -2.8670   -7.2450   30.4510 C.2   307  ARG307      0.2287
    107  O         -2.8440   -6.0590   30.0830 O.2   307  ARG307     -0.2864
    108  CB        -4.7520   -8.4430   29.3780 C.3   307  ARG307      0.0334
    109  CG        -6.1510   -9.0700   29.4130 C.3   307  ARG307      0.0492
    110  CD        -6.1280  -10.4500   30.0480 C.3   307  ARG307      0.2205
    111  NE        -7.4340  -11.0950   29.9740 N.pl3 307  ARG307     -0.0865
    112  CZ        -8.3500  -11.1080   30.9430 C.cat 307  ARG307      0.5346
    113  NH1       -8.1270  -10.5120   32.1000 N.pl3 307  ARG307      0.1354
    114  NH2       -9.5010  -11.7350   30.7490 N.pl3 307  ARG307      0.1354
    115  N        -17.5170  -15.6950   33.2690 N.3   387  CYS387     -0.1235
    116  CA       -17.3500  -16.0860   34.6660 C.3   387  CYS387      0.1677
    117  C        -17.9900  -17.4500   34.8960 C.2   387  CYS387      0.2270
    118  O        -19.1880  -17.6130   34.6700 O.2   387  CYS387     -0.2867
    119  CB       -17.9630  -15.0470   35.6150 C.3   387  CYS387      0.0956
    120  SG       -18.1500  -15.6270   37.3700 S.3   387  CYS387     -0.0801
    121  N        -13.7890   -1.4880   39.4090 N.3   428  GLY428     -0.1210
    122  CA       -12.7690   -2.3670   38.8690 C.3   428  GLY428      0.1956
    123  C        -12.7550   -3.7380   39.5220 C.2   428  GLY428      0.2612
    124  O        -12.1960   -4.6900   38.9590 O.2   428  GLY428     -0.2717
    125  N        -13.3890   -3.8620   40.6880 N.am  429  PHE429     -0.1962
    126  CA       -13.1940   -5.0650   41.5210 C.3   429  PHE429      0.1771
    127  C        -14.3200   -6.0880   41.5100 C.2   429  PHE429      0.2620
    128  O        -14.2390   -7.0960   42.2000 O.2   429  PHE429     -0.2715
    129  CB       -12.7920   -4.6950   42.9560 C.3   429  PHE429      0.0574
    130  CG       -11.3870   -4.1710   43.0670 C.ar  429  PHE429     -0.0200
    131  CD1      -10.3090   -5.0480   43.1090 C.ar  429  PHE429     -0.0042
    132  CD2      -11.1460   -2.8040   43.0970 C.ar  429  PHE429     -0.0042
    133  CE1       -9.0110   -4.5680   43.1910 C.ar  429  PHE429     -0.0003
    134  CE2       -9.8580   -2.3130   43.1830 C.ar  429  PHE429     -0.0003
    135  CZ        -8.7840   -3.1990   43.2300 C.ar  429  PHE429     -0.0000
    136  N        -15.3330   -5.8640   40.6820 N.am  430  GLY430     -0.1954
    137  CA       -16.4770   -6.7570   40.6510 C.3   430  GLY430      0.1869
    138  C        -17.7120   -5.9670   41.0040 C.2   430  GLY430      0.2309
    139  O        -17.8580   -4.8170   40.5850 O.2   430  GLY430     -0.2863
@<TRIPOS>BOND
     1   108   109    1
     2   108   105    1
     3   109   110    1
     4   111   110    1
     5   111   112    2
     6   107   106    2
     7   106   105    1
     8   105   104    1
     9   114   112    1
    10   112   113    1
    11    96    94    1
    12    95    93    1
    13   104    99   am
    14     1     2    1
    15    92    91    2
    16    93    94    1
    17    93    90    1
    18    99   100    2
    19    99    98    1
    20    91    90    1
    21    91    97   am
    22     2     5    1
    23     2     3    1
    24     5     6    1
    25    98    97    1
    26    98   101    1
    27    90    89    1
    28   115   116    1
    29    89    83   am
    30     9     7   am
    31     6     7    1
    32     3     4    2
    33    87    86    1
    34   103   101    1
    35   101   102    1
    36     7     8    2
    37    83    82    1
    38    83    84    2
    39    79    78    2
    40   116   117    1
    41   116   119    1
    42   118   117    2
    43    86    88    1
    44    86    85    1
    45    82    85    1
    46    82    81    1
    47   119   120    1
    48    78    81   am
    49    78    77    1
    50    14    15    1
    51    14    11    1
    52    10    11    1
    53    80    77    1
    54    77    76    1
    55    17    15   ar
    56    17    19   ar
    57    15    16   ar
    58    11    12    1
    59    19    20   ar
    60    16    18   ar
    61    22    12   am
    62    22    23    1
    63    12    13    2
    64    26    23    1
    65    20    18   ar
    66    20    21    1
    67   122   121    1
    68   122   123    1
    69    23    24    1
    70   124   123    2
    71   123   125   am
    72    24    25    2
    73    33    32    1
    74   139   138    2
    75   137   136    1
    76   137   138    1
    77   136   127   am
    78   125   126    1
    79    32    34    1
    80    32    31    1
    81   127   126    1
    82   127   128    2
    83   126   129    1
    84    75    73   am
    85    31    28    1
    86    27    28    1
    87    62    61    1
    88    73    74    2
    89    73    72    1
    90   129   130    1
    91    28    29    1
    92   130   132   ar
    93   130   131   ar
    94   132   134   ar
    95   131   133   ar
    96   134   135   ar
    97   133   135   ar
    98    56    55   ar
    99    56    54   ar
   100    72    69    1
   101    63    61    1
   102    60    59    2
   103    55    53   ar
   104    61    58    1
   105    29    30    2
   106    54    52   ar
   107    59    58    1
   108    58    57    1
   109    69    70    1
   110    69    68    1
   111    53    50   ar
   112    71    70    2
   113    41    40    1
   114    42    40    1
   115    52    50   ar
   116    52    51   ar
   117    68    66   am
   118    40    39    1
   119    50    48   ar
   120    57    45   am
   121    46    45    2
   122    67    66    2
   123    66    65    1
   124    51    49   ar
   125    45    44    1
   126    38    37    2
   127    48    49   ar
   128    48    47    1
   129    64    65    1
   130    39    36    1
   131    37    36    1
   132    47    44    1
   133    44    43    1
   134    36    35    1
