@<TRIPOS>MOLECULE
tmp/3b99B01.pdb
 142 138 0 0 0
SMALL
GASTEIGER

@<TRIPOS>ATOM
      1  N          8.6560  -13.3770   94.2090 N.3    74  GLN74      -0.1245
      2  CA         8.2520  -12.2010   93.4560 C.3    74  GLN74       0.1566
      3  C          9.2940  -11.0830   93.5600 C.2    74  GLN74       0.2260
      4  O          9.4880  -10.3150   92.6190 O.2    74  GLN74      -0.2867
      5  CB         6.8930  -11.7250   93.9890 C.3    74  GLN74       0.0367
      6  CG         6.0610  -10.9320   93.0020 C.3    74  GLN74       0.0905
      7  CD         4.8710  -10.2180   93.6440 C.2    74  GLN74       0.2608
      8  OE1        3.9460   -9.7920   92.9460 O.2    74  GLN74      -0.2717
      9  NE2        4.8970  -10.0690   94.9730 N.am   74  GLN74      -0.0878
     10  N         12.7430  -10.4600   91.0350 N.3    77  TYR77      -0.1227
     11  CA        12.3950   -9.8770   89.7420 C.3    77  TYR77       0.1736
     12  C         11.8240   -8.4490   89.8670 C.2    77  TYR77       0.2595
     13  O         12.1820   -7.5670   89.0790 O.2    77  TYR77      -0.2718
     14  CB        11.4540  -10.8000   88.9560 C.3    77  TYR77       0.0548
     15  CG        11.1840  -10.3440   87.5400 C.ar   77  TYR77      -0.0200
     16  CD1       12.2330   -9.9700   86.6970 C.ar   77  TYR77      -0.0009
     17  CD2        9.8860  -10.2930   87.0400 C.ar   77  TYR77      -0.0009
     18  CE1       11.9990   -9.5470   85.3990 C.ar   77  TYR77       0.0417
     19  CE2        9.6380   -9.8770   85.7270 C.ar   77  TYR77       0.0417
     20  CZ        10.7030   -9.5040   84.9160 C.ar   77  TYR77       0.1957
     21  OH        10.4840   -9.0810   83.6230 O.3    77  TYR77      -0.2866
     22  N         10.9580   -8.2100   90.8560 N.am   78  ALA78      -0.1980
     23  CA        10.4700   -6.8410   91.1210 C.3    78  ALA78       0.1597
     24  C         11.6200   -5.8540   91.3630 C.2    78  ALA78       0.2287
     25  O         11.5780   -4.7140   90.8960 O.2    78  ALA78      -0.2864
     26  CB         9.4980   -6.8250   92.2960 C.3    78  ALA78       0.0319
     27  N         13.1330   -4.9890   88.1150 N.3    81  LEU81      -0.1245
     28  CA        12.2150   -4.1490   87.3570 C.3    81  LEU81       0.1561
     29  C         12.2280   -2.6840   87.7970 C.2    81  LEU81       0.2260
     30  O         12.2150   -1.7850   86.9470 O.2    81  LEU81      -0.2867
     31  CB        10.7870   -4.7170   87.3650 C.3    81  LEU81       0.0270
     32  CG        10.4790   -5.9660   86.5170 C.3    81  LEU81       0.0019
     33  CD1        8.9870   -6.2060   86.4820 C.3    81  LEU81       0.0001
     34  CD2       11.0180   -5.8650   85.0840 C.3    81  LEU81       0.0001
     35  N          7.1390    5.5260   91.6510 N.3   217  LEU217     -0.1245
     36  CA         6.7460    4.1220   91.6790 C.3   217  LEU217      0.1561
     37  C          5.2730    3.9930   92.0540 C.2   217  LEU217      0.2260
     38  O          4.4920    3.3650   91.3250 O.2   217  LEU217     -0.2867
     39  CB         7.6340    3.3150   92.6390 C.3   217  LEU217      0.0270
     40  CG         7.3020    1.8280   92.8680 C.3   217  LEU217      0.0019
     41  CD1        7.2750    1.0360   91.5630 C.3   217  LEU217      0.0001
     42  CD2        8.2660    1.1930   93.8550 C.3   217  LEU217      0.0001
     43  N          2.8980    5.1880   89.4340 N.3   220  TRP220     -0.1227
     44  CA         2.6080    4.2210   88.3810 C.3   220  TRP220      0.1737
     45  C          1.7530    3.0640   88.8730 C.2   220  TRP220      0.2595
     46  O          0.8090    2.6620   88.1800 O.2   220  TRP220     -0.2718
     47  CB         3.8640    3.6880   87.6890 C.3   220  TRP220      0.0564
     48  CG         3.4830    2.6200   86.7100 C.ar  220  TRP220      0.0003
     49  CD1        2.9600    2.8020   85.4610 C.ar  220  TRP220      0.0946
     50  CD2        3.5230    1.2050   86.9260 C.ar  220  TRP220      0.0152
     51  NE1        2.7020    1.5850   84.8760 N.ar  220  TRP220     -0.2442
     52  CE2        3.0300    0.5900   85.7560 C.ar  220  TRP220      0.0810
     53  CE3        3.9300    0.3990   87.9940 C.ar  220  TRP220      0.0012
     54  CZ2        2.9420   -0.7920   85.6170 C.ar  220  TRP220      0.0191
     55  CZ3        3.8480   -0.9850   87.8500 C.ar  220  TRP220      0.0001
     56  CH2        3.3610   -1.5620   86.6700 C.ar  220  TRP220      0.0015
     57  N          2.0980    2.5240   90.0470 N.am  221  VAL221     -0.1980
     58  CA         1.3070    1.4570   90.6820 C.3   221  VAL221      0.1595
     59  C         -0.1510    1.8530   90.8390 C.2   221  VAL221      0.2287
     60  O         -1.0400    1.0390   90.6040 O.2   221  VAL221     -0.2864
     61  CB         1.8740    1.0300   92.0630 C.3   221  VAL221      0.0276
     62  CG1        0.8480    0.2220   92.8480 C.3   221  VAL221      0.0022
     63  CG2        3.1600    0.2180   91.9030 C.3   221  VAL221      0.0022
     64  N         -3.3280    2.0170   85.3560 N.3   225  ASN225     -0.1240
     65  CA        -4.3030    1.0380   84.8790 C.3   225  ASN225      0.1653
     66  C         -5.7540    1.5140   84.7390 C.2   225  ASN225      0.2266
     67  O         -6.4480    1.0710   83.8310 O.2   225  ASN225     -0.2867
     68  CB        -4.2610   -0.2310   85.7480 C.3   225  ASN225      0.1155
     69  CG        -3.1670   -1.2140   85.3230 C.2   225  ASN225      0.2627
     70  OD1       -2.6250   -1.1450   84.2230 O.2   225  ASN225     -0.2716
     71  ND2       -2.8560   -2.1470   86.2060 N.am  225  ASN225     -0.0877
     72  N         -1.8350   -8.7920   82.6620 N.3   271  ALA271     -0.1231
     73  CA        -0.6610   -8.9250   83.5310 C.3   271  ALA271      0.1694
     74  C         -0.0440  -10.2870   83.3020 C.2   271  ALA271      0.2592
     75  O         -0.7450  -11.2940   83.3050 O.2   271  ALA271     -0.2718
     76  CB        -1.0580   -8.7860   85.0020 C.3   271  ALA271      0.0304
     77  N          1.2660  -10.3110   83.1030 N.am  272  LEU272     -0.1966
     78  CA         1.9980  -11.5530   83.0350 C.3   272  LEU272      0.1728
     79  C          2.5810  -11.7850   84.4230 C.2   272  LEU272      0.2616
     80  O          3.6280  -11.2220   84.7840 O.2   272  LEU272     -0.2715
     81  CB         3.0920  -11.4690   81.9630 C.3   272  LEU272      0.0311
     82  CG         3.9600  -12.6780   81.6150 C.3   272  LEU272      0.0022
     83  CD1        3.1850  -13.7630   80.8880 C.3   272  LEU272      0.0001
     84  CD2        5.1190  -12.2020   80.7620 C.3   272  LEU272      0.0001
     85  N          1.8820  -12.6080   85.2000 N.am  273  ILE273     -0.1963
     86  CA         2.2790  -12.9020   86.5680 C.3   273  ILE273      0.1727
     87  C          3.5320  -13.7390   86.4950 C.2   273  ILE273      0.2617
     88  O          3.5250  -14.8040   85.8980 O.2   273  ILE273     -0.2715
     89  CB         1.1550  -13.6320   87.3480 C.3   273  ILE273      0.0290
     90  CG1       -0.1310  -12.7790   87.3750 C.3   273  ILE273      0.0022
     91  CG2        1.6110  -13.9740   88.7550 C.3   273  ILE273      0.0023
     92  CD1       -1.3910  -13.5510   87.8850 C.3   273  ILE273      0.0001
     93  N          4.6050  -13.2280   87.0970 N.am  274  THR274     -0.1937
     94  CA         5.9450  -13.7830   86.9590 C.3   274  THR274      0.2028
     95  C          6.6210  -13.9970   88.3280 C.2   274  THR274      0.2642
     96  O          6.5920  -13.1210   89.1970 O.2   274  THR274     -0.2714
     97  CB         6.7990  -12.8720   86.0340 C.3   274  THR274      0.1808
     98  OG1        6.0940  -12.6850   84.8020 O.3   274  THR274     -0.2208
     99  CG2        8.1600  -13.4980   85.7110 C.3   274  THR274      0.0379
    100  N          7.2120  -15.1740   88.5110 N.am  275  ARG275     -0.1977
    101  CA         7.9380  -15.5070   89.7350 C.3   275  ARG275      0.1597
    102  C          9.2300  -16.2280   89.3890 C.2   275  ARG275      0.2287
    103  O          9.2770  -16.9960   88.4220 O.2   275  ARG275     -0.2864
    104  CB         7.1110  -16.4500   90.6280 C.3   275  ARG275      0.0334
    105  CG         5.7050  -15.9980   90.9960 C.3   275  ARG275      0.0492
    106  CD         5.6900  -14.8420   91.9770 C.3   275  ARG275      0.2205
    107  NE         4.3150  -14.4310   92.2710 N.pl3 275  ARG275     -0.0865
    108  CZ         3.6770  -13.4110   91.6850 C.cat 275  ARG275      0.5346
    109  NH1        4.2850  -12.6670   90.7570 N.pl3 275  ARG275      0.1354
    110  NH2        2.4170  -13.1310   92.0260 N.pl3 275  ARG275      0.1354
    111  N         -5.1240   -8.2270   93.6880 N.3   357  CYS357     -0.1221
    112  CA        -4.7920   -6.8100   93.6770 C.3   357  CYS357      0.1794
    113  C         -5.5050   -6.1050   94.8270 C.2   357  CYS357      0.2443
    114  O         -6.7330   -6.1520   94.9100 O.2   357  CYS357     -0.2733
    115  CB        -5.1900   -6.1680   92.3420 C.3   357  CYS357      0.0970
    116  SG        -4.8130   -4.4080   92.2460 S.3   357  CYS357     -0.0800
    117  N         -4.7370   -5.4530   95.7200 N.am  358  PRO358     -0.2729
    118  CA        -5.3250   -4.7040   96.8390 C.3   358  PRO358      0.1401
    119  C         -6.0170   -3.4180   96.3890 C.2   358  PRO358      0.2269
    120  O         -6.8830   -2.8900   97.1040 O.2   358  PRO358     -0.2865
    121  CB        -4.1200   -4.3750   97.7120 C.3   358  PRO358      0.0296
    122  CG        -2.9460   -4.3880   96.7850 C.3   358  PRO358      0.0237
    123  CD        -3.2630   -5.3880   95.7140 C.3   358  PRO358      0.0939
    124  N          1.4910   -8.1250   79.2670 N.3   398  GLY398     -0.1210
    125  CA         2.2300   -8.3970   80.5020 C.3   398  GLY398      0.1956
    126  C          2.2160   -7.2970   81.5470 C.2   398  GLY398      0.2612
    127  O          2.5560   -7.5280   82.7060 O.2   398  GLY398     -0.2717
    128  N          1.8040   -6.0990   81.1570 N.am  399  PHE399     -0.1962
    129  CA         2.0270   -4.9300   82.0040 C.3   399  PHE399      0.1771
    130  C          0.8200   -4.4110   82.7690 C.2   399  PHE399      0.2620
    131  O          0.9600   -3.5150   83.6030 O.2   399  PHE399     -0.2715
    132  CB         2.6770   -3.8090   81.1960 C.3   399  PHE399      0.0574
    133  CG         4.0940   -4.1040   80.8180 C.ar  399  PHE399     -0.0200
    134  CD1        5.1410   -3.7300   81.6580 C.ar  399  PHE399     -0.0042
    135  CD2        4.3820   -4.7910   79.6480 C.ar  399  PHE399     -0.0042
    136  CE1        6.4670   -4.0100   81.3240 C.ar  399  PHE399     -0.0003
    137  CE2        5.6970   -5.0850   79.3060 C.ar  399  PHE399     -0.0003
    138  CZ         6.7490   -4.6910   80.1490 C.ar  399  PHE399     -0.0000
    139  N         -0.3440   -4.9960   82.5130 N.am  400  GLY400     -0.1954
    140  CA        -1.5790   -4.5630   83.1500 C.3   400  GLY400      0.1869
    141  C         -2.6380   -4.3960   82.0820 C.2   400  GLY400      0.2309
    142  O         -2.7560   -5.2360   81.1860 O.2   400  GLY400     -0.2863
@<TRIPOS>BOND
     1   124   125    1
     2   137   135   ar
     3   137   138   ar
     4   135   133   ar
     5   138   136   ar
     6   125   126    1
     7    84    82    1
     8   133   132    1
     9   133   134   ar
    10    83    82    1
    11   128   126   am
    12   128   129    1
    13   142   141    2
    14   132   129    1
    15   136   134   ar
    16   126   127    2
    17    82    81    1
    18    81    78    1
    19   129   130    1
    20   141   140    1
    21   139   130   am
    22   139   140    1
    23    72    73    1
    24   130   131    2
    25    78    77    1
    26    78    79    1
    27    77    74   am
    28    74    75    2
    29    74    73    1
    30    73    76    1
    31    21    20    1
    32    67    66    2
    33    70    69    2
    34    79    80    2
    35    79    85   am
    36    66    65    1
    37    98    97    1
    38    51    49   ar
    39    51    52   ar
    40    65    64    1
    41    65    68    1
    42    20    18   ar
    43    20    19   ar
    44    34    32    1
    45    85    86    1
    46    69    68    1
    47    69    71   am
    48    18    16   ar
    49    49    48   ar
    50    54    52   ar
    51    54    56   ar
    52    99    97    1
    53    19    17   ar
    54    52    50   ar
    55    88    87    2
    56    97    94    1
    57    33    32    1
    58    87    86    1
    59    87    93   am
    60    32    31    1
    61    86    89    1
    62    56    55   ar
    63    16    15   ar
    64    48    50   ar
    65    48    47    1
    66    50    53   ar
    67    30    29    2
    68    94    93    1
    69    94    95    1
    70    17    15   ar
    71    89    90    1
    72    89    91    1
    73    28    31    1
    74    28    29    1
    75    28    27    1
    76    90    92    1
    77    15    14    1
    78    47    44    1
    79    55    53   ar
    80    46    45    2
    81    95   100   am
    82    95    96    2
    83    44    45    1
    84    44    43    1
    85   103   102    2
    86   100   101    1
    87    45    57   am
    88    14    11    1
    89    13    12    2
    90   102   101    1
    91   101   104    1
    92    11    12    1
    93    11    10    1
    94    12    22   am
    95    57    58    1
    96    60    59    2
    97   104   105    1
    98    58    59    1
    99    58    61    1
   100   109   108    1
   101    22    23    1
   102    25    24    2
   103   105   106    1
   104    23    24    1
   105    23    26    1
   106    38    37    2
   107    41    40    1
   108    35    36    1
   109    36    37    1
   110    36    39    1
   111   108   110    1
   112   108   107    2
   113    63    61    1
   114   106   107    1
   115    61    62    1
   116   116   115    1
   117   115   112    1
   118     4     3    2
   119    39    40    1
   120    40    42    1
   121     8     7    2
   122     6     7    1
   123     6     5    1
   124     2     3    1
   125     2     5    1
   126     2     1    1
   127     7     9   am
   128   112   111    1
   129   112   113    1
   130   113   114    2
   131   113   117   am
   132   123   117    1
   133   123   122    1
   134   117   118    1
   135   119   118    1
   136   119   120    2
   137   122   121    1
   138   118   121    1
