@<TRIPOS>MOLECULE
tmp/3b99B03.pdb
 178 168 0 0 0
SMALL
GASTEIGER

@<TRIPOS>ATOM
      1  N         21.5110  -18.5120   73.0120 N.3    18  TRP18      -0.1241
      2  CA        21.2990  -17.4480   74.0130 C.3    18  TRP18       0.1605
      3  C         20.0290  -16.5930   73.8330 C.2    18  TRP18       0.2264
      4  O         19.2230  -16.5100   74.7580 O.2    18  TRP18      -0.2867
      5  CB        22.5440  -16.5620   74.1910 C.3    18  TRP18       0.0550
      6  CG        22.4670  -15.6450   75.3880 C.ar   18  TRP18       0.0003
      7  CD1       22.9520  -15.8930   76.6410 C.ar   18  TRP18       0.0946
      8  CD2       21.8820  -14.3300   75.4380 C.ar   18  TRP18       0.0152
      9  NE1       22.7020  -14.8180   77.4680 N.ar   18  TRP18      -0.2442
     10  CE2       22.0460  -13.8490   76.7570 C.ar   18  TRP18       0.0810
     11  CE3       21.2390  -13.5150   74.4950 C.ar   18  TRP18       0.0012
     12  CZ2       21.5880  -12.5920   77.1630 C.ar   18  TRP18       0.0191
     13  CZ3       20.7750  -12.2510   74.8950 C.ar   18  TRP18       0.0001
     14  CH2       20.9570  -11.8050   76.2230 C.ar   18  TRP18       0.0015
     15  N         13.4490  -14.3460   72.8070 N.3    22  ALA22      -0.1245
     16  CA        13.3770  -13.0080   73.4140 C.3    22  ALA22       0.1562
     17  C         12.6800  -11.9470   72.5750 C.2    22  ALA22       0.2260
     18  O         11.8550  -11.2000   73.0990 O.2    22  ALA22      -0.2867
     19  CB        14.7610  -12.5250   73.8150 C.3    22  ALA22       0.0290
     20  N          8.8450  -12.8850   71.9380 N.3    25  PHE25      -0.1227
     21  CA         8.2140  -12.7870   73.2590 C.3    25  PHE25       0.1736
     22  C          7.9350  -11.3130   73.5950 C.2    25  PHE25       0.2596
     23  O          6.8340  -10.9520   74.0360 O.2    25  PHE25      -0.2718
     24  CB         9.1710  -13.3780   74.3030 C.3    25  PHE25       0.0547
     25  CG         8.5040  -13.9080   75.5530 C.ar   25  PHE25      -0.0202
     26  CD1        7.2940  -13.3910   76.0160 C.ar   25  PHE25      -0.0042
     27  CD2        9.1300  -14.9050   76.2980 C.ar   25  PHE25      -0.0042
     28  CE1        6.7090  -13.8880   77.1750 C.ar   25  PHE25      -0.0003
     29  CE2        8.5530  -15.3990   77.4510 C.ar   25  PHE25      -0.0003
     30  CZ         7.3440  -14.8930   77.8920 C.ar   25  PHE25      -0.0000
     31  N          8.9460  -10.4760   73.3740 N.am   26  GLY26      -0.1957
     32  CA         8.8710   -9.0610   73.6830 C.3    26  GLY26       0.1869
     33  C          8.0090   -8.2610   72.7320 C.2    26  GLY26       0.2309
     34  O          7.4100   -7.2620   73.1330 O.2    26  GLY26      -0.2863
     35  N          3.7540  -10.6840   73.3860 N.3    29  ALA29      -0.1245
     36  CA         3.8000  -11.8150   74.3270 C.3    29  ALA29       0.1562
     37  C          2.6090  -12.7350   74.1750 C.2    29  ALA29       0.2260
     38  O          2.7610  -13.9560   74.2620 O.2    29  ALA29      -0.2867
     39  CB         3.9070  -11.3240   75.7770 C.3    29  ALA29       0.0290
     40  N         14.9210  -17.3680   76.4500 N.3    48  ALA48      -0.1231
     41  CA        14.9570  -15.9620   76.0830 C.3    48  ALA48       0.1694
     42  C         16.0560  -15.2690   76.8510 C.2    48  ALA48       0.2591
     43  O         16.0750  -15.3000   78.0820 O.2    48  ALA48      -0.2718
     44  CB        13.5980  -15.2880   76.3350 C.3    48  ALA48       0.0304
     45  N         16.9890  -14.6640   76.1140 N.am   49  ALA49      -0.1980
     46  CA        18.0870  -13.8910   76.7060 C.3    49  ALA49       0.1597
     47  C         18.8700  -14.6840   77.7560 C.2    49  ALA49       0.2287
     48  O         19.1850  -14.1720   78.8330 O.2    49  ALA49      -0.2864
     49  CB        17.5630  -12.5810   77.2970 C.3    49  ALA49       0.0319
     50  N         17.8840  -16.9760   79.6480 N.3    51  LEU51      -0.1245
     51  CA        17.0190  -17.4860   80.7150 C.3    51  LEU51       0.1561
     52  C         16.0370  -18.5530   80.2270 C.2    51  LEU51       0.2260
     53  O         15.7270  -18.6300   79.0430 O.2    51  LEU51      -0.2867
     54  CB        16.2580  -16.3410   81.4040 C.3    51  LEU51       0.0270
     55  CG        17.0620  -15.4960   82.4050 C.3    51  LEU51       0.0019
     56  CD1       17.4600  -14.1500   81.8010 C.3    51  LEU51       0.0001
     57  CD2       16.2940  -15.2750   83.7100 C.3    51  LEU51       0.0001
     58  N         12.1160  -19.9290   80.8890 N.3    53  ILE53      -0.1245
     59  CA        10.8470  -19.4860   81.4170 C.3    53  ILE53       0.1561
     60  C          9.8170  -20.5850   81.1870 C.2    53  ILE53       0.2260
     61  O          9.4520  -20.8820   80.0480 O.2    53  ILE53      -0.2867
     62  CB        10.3900  -18.1440   80.7540 C.3    53  ILE53       0.0252
     63  CG1       11.4100  -17.0180   80.9970 C.3    53  ILE53       0.0019
     64  CG2        9.0330  -17.7260   81.2630 C.3    53  ILE53       0.0019
     65  CD1       12.4180  -16.8020   79.8540 C.3    53  ILE53       0.0001
     66  N         12.7430  -10.4600   91.0350 N.3    77  TYR77      -0.1241
     67  CA        12.3950   -9.8770   89.7420 C.3    77  TYR77       0.1605
     68  C         11.8240   -8.4490   89.8670 C.2    77  TYR77       0.2264
     69  O         12.1820   -7.5670   89.0790 O.2    77  TYR77      -0.2867
     70  CB        11.4540  -10.8000   88.9560 C.3    77  TYR77       0.0534
     71  CG        11.1840  -10.3440   87.5400 C.ar   77  TYR77      -0.0201
     72  CD1       12.2330   -9.9700   86.6970 C.ar   77  TYR77      -0.0009
     73  CD2        9.8860  -10.2930   87.0400 C.ar   77  TYR77      -0.0009
     74  CE1       11.9990   -9.5470   85.3990 C.ar   77  TYR77       0.0417
     75  CE2        9.6380   -9.8770   85.7270 C.ar   77  TYR77       0.0417
     76  CZ        10.7030   -9.5040   84.9160 C.ar   77  TYR77       0.1957
     77  OH        10.4840   -9.0810   83.6230 O.3    77  TYR77      -0.2866
     78  N         13.1330   -4.9890   88.1150 N.3    81  LEU81      -0.1245
     79  CA        12.2150   -4.1490   87.3570 C.3    81  LEU81       0.1561
     80  C         12.2280   -2.6840   87.7970 C.2    81  LEU81       0.2260
     81  O         12.2150   -1.7850   86.9470 O.2    81  LEU81      -0.2867
     82  CB        10.7870   -4.7170   87.3650 C.3    81  LEU81       0.0270
     83  CG        10.4790   -5.9660   86.5170 C.3    81  LEU81       0.0019
     84  CD1        8.9870   -6.2060   86.4820 C.3    81  LEU81       0.0001
     85  CD2       11.0180   -5.8650   85.0840 C.3    81  LEU81       0.0001
     86  N         15.5250   -0.8820   86.5030 N.3    84  ARG84      -0.1245
     87  CA        15.4720   -0.5480   85.0740 C.3    84  ARG84       0.1563
     88  C         14.5010    0.5880   84.7750 C.2    84  ARG84       0.2260
     89  O         14.8480    1.5330   84.0690 O.2    84  ARG84      -0.2867
     90  CB        15.1130   -1.7740   84.2180 C.3    84  ARG84       0.0307
     91  CG        16.0380   -2.9780   84.3880 C.3    84  ARG84       0.0489
     92  CD        16.2540   -3.6980   83.0630 C.3    84  ARG84       0.2205
     93  NE        15.4250   -4.8890   82.8930 N.pl3  84  ARG84      -0.0865
     94  CZ        15.8660   -6.1420   83.0220 C.cat  84  ARG84       0.5346
     95  NH1       17.1310   -6.3910   83.3360 N.pl3  84  ARG84       0.1354
     96  NH2       15.0350   -7.1590   82.8360 N.pl3  84  ARG84       0.1354
     97  N         11.6510   -1.8530   80.6460 N.3   172  ALA172     -0.1231
     98  CA        11.6750   -3.1530   81.3100 C.3   172  ALA172      0.1694
     99  C         12.4680   -4.1770   80.5000 C.2   172  ALA172      0.2592
    100  O         13.1070   -5.0780   81.0690 O.2   172  ALA172     -0.2718
    101  CB        10.2600   -3.6470   81.5710 C.3   172  ALA172      0.0304
    102  N         12.4270   -4.0170   79.1750 N.am  173  ARG173     -0.1966
    103  CA        13.1220   -4.9030   78.2390 C.3   173  ARG173      0.1729
    104  C         14.5100   -4.3920   77.8320 C.2   173  ARG173      0.2616
    105  O         15.3070   -5.1480   77.2670 O.2   173  ARG173     -0.2715
    106  CB        12.2690   -5.1190   76.9870 C.3   173  ARG173      0.0348
    107  CG        11.0780   -6.0410   77.1810 C.3   173  ARG173      0.0492
    108  CD         9.9220   -5.6360   76.2750 C.3   173  ARG173      0.2205
    109  NE         8.7900   -6.5580   76.3640 N.pl3 173  ARG173     -0.0865
    110  CZ         7.5410   -6.2500   76.0220 C.cat 173  ARG173      0.5346
    111  NH1        7.2510   -5.0320   75.5730 N.pl3 173  ARG173      0.1354
    112  NH2        6.5750   -7.1590   76.1300 N.pl3 173  ARG173      0.1354
    113  N         14.7910   -3.1190   78.1170 N.am  174  THR174     -0.1951
    114  CA        16.0450   -2.4580   77.7100 C.3   174  THR174      0.1897
    115  C         16.1480   -2.2700   76.1880 C.2   174  THR174      0.2313
    116  O         15.5650   -1.3440   75.6140 O.2   174  THR174     -0.2863
    117  CB        17.3110   -3.1990   78.2340 C.3   174  THR174      0.1794
    118  OG1       17.0420   -3.7900   79.5130 O.3   174  THR174     -0.2208
    119  CG2       18.4920   -2.2370   78.3600 C.3   174  THR174      0.0378
    120  N          1.2660  -10.3110   83.1030 N.3   272  LEU272     -0.1245
    121  CA         1.9980  -11.5530   83.0350 C.3   272  LEU272      0.1561
    122  C          2.5810  -11.7850   84.4230 C.2   272  LEU272      0.2260
    123  O          3.6280  -11.2220   84.7840 O.2   272  LEU272     -0.2867
    124  CB         3.0920  -11.4690   81.9630 C.3   272  LEU272      0.0270
    125  CG         3.9600  -12.6780   81.6150 C.3   272  LEU272      0.0019
    126  CD1        3.1850  -13.7630   80.8880 C.3   272  LEU272      0.0001
    127  CD2        5.1190  -12.2020   80.7620 C.3   272  LEU272      0.0001
    128  N          4.6050  -13.2280   87.0970 N.3   274  THR274     -0.1218
    129  CA         5.9450  -13.7830   86.9590 C.3   274  THR274      0.1862
    130  C          6.6210  -13.9970   88.3280 C.2   274  THR274      0.2287
    131  O          6.5920  -13.1210   89.1970 O.2   274  THR274     -0.2866
    132  CB         6.7990  -12.8720   86.0340 C.3   274  THR274      0.1770
    133  OG1        6.0940  -12.6850   84.8020 O.3   274  THR274     -0.2211
    134  CG2        8.1600  -13.4980   85.7110 C.3   274  THR274      0.0375
    135  N         12.4360  -18.9540   85.6000 N.3   298  ARG298     -0.1245
    136  CA        11.2790  -18.1310   85.9160 C.3   298  ARG298      0.1563
    137  C         10.0240  -18.9340   85.6270 C.2   298  ARG298      0.2260
    138  O         10.0580  -19.9120   84.8640 O.2   298  ARG298     -0.2867
    139  CB        11.2660  -16.8080   85.1440 C.3   298  ARG298      0.0307
    140  CG        12.3450  -15.8500   85.6200 C.3   298  ARG298      0.0489
    141  CD        11.8280  -14.4490   85.8280 C.3   298  ARG298      0.2205
    142  NE        12.2800  -13.5320   84.7950 N.pl3 298  ARG298     -0.0865
    143  CZ        13.3950  -12.8050   84.8620 C.cat 298  ARG298      0.5346
    144  NH1       14.2050  -12.8830   85.9230 N.pl3 298  ARG298      0.1354
    145  NH2       13.7060  -12.0000   83.8510 N.pl3 298  ARG298      0.1354
    146  N          5.8900  -18.2000   84.5580 N.3   300  CYS300     -0.1235
    147  CA         4.8810  -17.2590   84.1260 C.3   300  CYS300      0.1677
    148  C          3.5170  -17.9080   84.0440 C.2   300  CYS300      0.2270
    149  O          3.3770  -19.0820   83.6980 O.2   300  CYS300     -0.2867
    150  CB         5.2300  -16.6260   82.7840 C.3   300  CYS300      0.0956
    151  SG         6.6420  -15.5640   82.8410 S.3   300  CYS300     -0.0801
    152  N          1.4830   -6.0760   76.4200 N.3   397  TYR397     -0.1227
    153  CA         1.1480   -7.3610   77.0020 C.3   397  TYR397      0.1736
    154  C          2.0720   -7.6450   78.1690 C.2   397  TYR397      0.2596
    155  O          3.2780   -7.4010   78.0830 O.2   397  TYR397     -0.2718
    156  CB         1.2450   -8.4600   75.9600 C.3   397  TYR397      0.0548
    157  CG         0.1180   -8.4570   74.9650 C.ar  397  TYR397     -0.0200
    158  CD1       -1.1840   -8.7570   75.3600 C.ar  397  TYR397     -0.0009
    159  CD2        0.3520   -8.1810   73.6190 C.ar  397  TYR397     -0.0009
    160  CE1       -2.2290   -8.7670   74.4440 C.ar  397  TYR397      0.0417
    161  CE2       -0.6920   -8.1920   72.6870 C.ar  397  TYR397      0.0417
    162  CZ        -1.9750   -8.4850   73.1090 C.ar  397  TYR397      0.1957
    163  OH        -3.0100   -8.4970   72.2050 O.3   397  TYR397     -0.2866
    164  N          1.4910   -8.1250   79.2670 N.am  398  GLY398     -0.1942
    165  CA         2.2300   -8.3970   80.5020 C.3   398  GLY398      0.2014
    166  C          2.2160   -7.2970   81.5470 C.2   398  GLY398      0.2638
    167  O          2.5560   -7.5280   82.7060 O.2   398  GLY398     -0.2714
    168  N          1.8040   -6.0990   81.1570 N.am  399  PHE399     -0.1973
    169  CA         2.0270   -4.9300   82.0040 C.3   399  PHE399      0.1639
    170  C          0.8200   -4.4110   82.7690 C.2   399  PHE399      0.2290
    171  O          0.9600   -3.5150   83.6030 O.2   399  PHE399     -0.2864
    172  CB         2.6770   -3.8090   81.1960 C.3   399  PHE399      0.0560
    173  CG         4.0940   -4.1040   80.8180 C.ar  399  PHE399     -0.0200
    174  CD1        5.1410   -3.7300   81.6580 C.ar  399  PHE399     -0.0042
    175  CD2        4.3820   -4.7910   79.6480 C.ar  399  PHE399     -0.0042
    176  CE1        6.4670   -4.0100   81.3240 C.ar  399  PHE399     -0.0003
    177  CE2        5.6970   -5.0850   79.3060 C.ar  399  PHE399     -0.0003
    178  CZ         6.7490   -4.6910   80.1490 C.ar  399  PHE399     -0.0000
@<TRIPOS>BOND
     1    20    21    1
     2   163   162    1
     3    17    18    2
     4    17    16    1
     5   161   162   ar
     6   161   159   ar
     7    33    34    2
     8    33    32    1
     9    15    16    1
    10     1     2    1
    11   162   160   ar
    12    21    22    1
    13    21    24    1
    14    31    22   am
    15    31    32    1
    16    35    36    1
    17    16    19    1
    18    22    23    2
    19   159   157   ar
    20     3     2    1
    21     3     4    2
    22     2     5    1
    23    37    38    2
    24    37    36    1
    25     5     6    1
    26    24    25    1
    27    36    39    1
    28   160   158   ar
    29    11    13   ar
    30    11     8   ar
    31    13    14   ar
    32   157   158   ar
    33   157   156    1
    34     6     8   ar
    35     6     7   ar
    36     8    10   ar
    37    25    26   ar
    38    25    27   ar
    39   111   110    1
    40   116   115    2
    41   156   153    1
    42    26    28   ar
    43   110   112    1
    44   110   109    2
    45    41    44    1
    46    41    40    1
    47    41    42    1
    48    45    46    1
    49    45    42   am
    50   115   114    1
    51    14    12   ar
    52   108   109    1
    53   108   107    1
    54    27    29   ar
    55   152   153    1
    56     7     9   ar
    57    46    49    1
    58    46    47    1
    59    10    12   ar
    60    10     9   ar
    61    42    43    2
    62   106   107    1
    63   106   103    1
    64   153   154    1
    65    28    30   ar
    66   105   104    2
    67    29    30   ar
    68   114   113    1
    69   114   117    1
    70    47    48    2
    71   104   113   am
    72   104   103    1
    73   155   154    2
    74   154   164   am
    75   117   119    1
    76   117   118    1
    77   103   102    1
    78    53    52    2
    79   102    99   am
    80   164   165    1
    81   177   175   ar
    82   177   178   ar
    83   175   173   ar
    84    50    51    1
    85    65    63    1
    86    61    60    2
    87   178   176   ar
    88    52    51    1
    89    99   100    2
    90    99    98    1
    91   165   166    1
    92    97    98    1
    93    51    54    1
    94    62    63    1
    95    62    64    1
    96    62    59    1
    97   127   125    1
    98   173   172    1
    99   173   174   ar
   100   126   125    1
   101    58    59    1
   102   168   166   am
   103   168   169    1
   104    60    59    1
   105   172   169    1
   106    98   101    1
   107   176   174   ar
   108    54    55    1
   109   166   167    2
   110   125   124    1
   111    56    55    1
   112   124   121    1
   113   169   170    1
   114    55    57    1
   115   170   171    2
   116   150   151    1
   117   150   147    1
   118    96    94    1
   119    93    94    2
   120    93    92    1
   121    94    95    1
   122   121   120    1
   123   121   122    1
   124    92    91    1
   125    77    76    1
   126   149   148    2
   127   145   143    1
   128   148   147    1
   129    89    88    2
   130   147   146    1
   131    90    91    1
   132    90    87    1
   133   122   123    2
   134    88    87    1
   135   142   143    2
   136   142   141    1
   137   133   132    1
   138   143   144    1
   139   138   137    2
   140    76    74   ar
   141    76    75   ar
   142    87    86    1
   143    85    83    1
   144   139   140    1
   145   139   136    1
   146    74    72   ar
   147   135   136    1
   148   140   141    1
   149   137   136    1
   150   134   132    1
   151    75    73   ar
   152   132   129    1
   153    84    83    1
   154    83    82    1
   155    72    71   ar
   156    81    80    2
   157   129   128    1
   158   129   130    1
   159    73    71   ar
   160    79    82    1
   161    79    80    1
   162    79    78    1
   163    71    70    1
   164   130   131    2
   165    70    67    1
   166    69    68    2
   167    67    68    1
   168    67    66    1
