@<TRIPOS>MOLECULE
tmp/3b99A03.pdb
 171 160 0 0 0
SMALL
GASTEIGER

@<TRIPOS>ATOM
      1  N         -1.6610    7.4620   38.6730 N.3    22  ALA22      -0.1245
      2  CA        -1.8720    6.3060   39.5350 C.3    22  ALA22       0.1562
      3  C         -2.8600    6.5940   40.6660 C.2    22  ALA22       0.2260
      4  O         -3.8530    5.8920   40.8080 O.2    22  ALA22      -0.2867
      5  CB        -0.5420    5.7880   40.0790 C.3    22  ALA22       0.0290
      6  N         -6.4890    7.3860   39.1930 N.3    25  PHE25      -0.1227
      7  CA        -7.0020    6.1380   38.6060 C.3    25  PHE25       0.1736
      8  C         -7.4420    5.2200   39.7600 C.2    25  PHE25       0.2596
      9  O         -8.5320    4.6540   39.7350 O.2    25  PHE25      -0.2718
     10  CB        -5.8910    5.4910   37.7590 C.3    25  PHE25       0.0547
     11  CG        -6.3400    4.4040   36.8010 C.ar   25  PHE25      -0.0202
     12  CD1       -7.5360    3.7070   36.9660 C.ar   25  PHE25      -0.0042
     13  CD2       -5.5070    4.0320   35.7500 C.ar   25  PHE25      -0.0042
     14  CE1       -7.9140    2.6800   36.0620 C.ar   25  PHE25      -0.0003
     15  CE2       -5.8670    3.0190   34.8670 C.ar   25  PHE25      -0.0003
     16  CZ        -7.0780    2.3350   35.0350 C.ar   25  PHE25      -0.0000
     17  N         -6.6040    5.1140   40.7900 N.am   26  GLY26      -0.1957
     18  CA        -6.9000    4.2610   41.9380 C.3    26  GLY26       0.1869
     19  C         -8.0950    4.6780   42.7810 C.2    26  GLY26       0.2309
     20  O         -8.9480    3.8540   43.0850 O.2    26  GLY26      -0.2863
     21  N        -11.8820    4.7380   39.6320 N.3    29  ALA29      -0.1245
     22  CA       -11.5520    4.3530   38.2550 C.3    29  ALA29       0.1562
     23  C        -12.6370    4.7430   37.2560 C.2    29  ALA29       0.2260
     24  O        -12.3300    5.0460   36.1000 O.2    29  ALA29      -0.2867
     25  CB       -11.2200    2.8600   38.1530 C.3    29  ALA29       0.0290
     26  N          0.7850    5.3580   34.7320 N.3    48  ALA48      -0.1231
     27  CA         0.5210    5.1200   36.1350 C.3    48  ALA48       0.1694
     28  C          1.6460    4.2850   36.7490 C.2    48  ALA48       0.2591
     29  O          1.8730    3.1500   36.3490 O.2    48  ALA48      -0.2718
     30  CB        -0.8230    4.4480   36.3130 C.3    48  ALA48       0.0304
     31  N          2.3600    4.8700   37.7060 N.am   49  ALA49      -0.1980
     32  CA         3.4270    4.1740   38.4270 C.3    49  ALA49       0.1597
     33  C          4.4200    3.4760   37.4870 C.2    49  ALA49       0.2287
     34  O          4.6400    2.2730   37.5800 O.2    49  ALA49      -0.2864
     35  CB         2.8360    3.1810   39.4410 C.3    49  ALA49       0.0319
     36  N          4.2170    2.5460   34.5040 N.3    51  LEU51      -0.1245
     37  CA         3.6270    1.6990   33.4860 C.3    51  LEU51       0.1561
     38  C          2.6780    2.4860   32.5820 C.2    51  LEU51       0.2260
     39  O          2.0980    3.4900   32.9940 O.2    51  LEU51      -0.2867
     40  CB         2.8440    0.5510   34.1360 C.3    51  LEU51       0.0270
     41  CG         3.5090   -0.5000   35.0270 C.3    51  LEU51       0.0019
     42  CD1        2.4540   -1.5420   35.4290 C.3    51  LEU51       0.0001
     43  CD2        4.7410   -1.1730   34.3640 C.3    51  LEU51       0.0001
     44  N         -0.7660    2.1130   30.3400 N.3    53  ILE53      -0.1245
     45  CA        -1.9630    1.2990   30.3490 C.3    53  ILE53       0.1561
     46  C         -2.8950    1.8340   29.2790 C.2    53  ILE53       0.2260
     47  O         -3.3300    2.9920   29.3440 O.2    53  ILE53      -0.2867
     48  CB        -2.6810    1.3600   31.7260 C.3    53  ILE53       0.0252
     49  CG1       -1.7690    0.8700   32.8490 C.3    53  ILE53       0.0019
     50  CG2       -3.9370    0.5280   31.7120 C.3    53  ILE53       0.0019
     51  CD1       -1.1460    1.9780   33.6450 C.3    53  ILE53       0.0001
     52  N         -0.2170  -10.6280   36.1690 N.3    77  TYR77      -0.1241
     53  CA        -0.8400   -9.5900   36.9780 C.3    77  TYR77       0.1605
     54  C         -1.5340  -10.2400   38.1700 C.2    77  TYR77       0.2264
     55  O         -1.3510   -9.8170   39.3220 O.2    77  TYR77      -0.2867
     56  CB        -1.8160   -8.7360   36.1610 C.3    77  TYR77       0.0534
     57  CG        -2.3350   -7.5410   36.9230 C.ar   77  TYR77      -0.0201
     58  CD1       -1.4840   -6.7870   37.7320 C.ar   77  TYR77      -0.0009
     59  CD2       -3.6760   -7.1540   36.8330 C.ar   77  TYR77      -0.0009
     60  CE1       -1.9540   -5.7040   38.4580 C.ar   77  TYR77       0.0417
     61  CE2       -4.1510   -6.0570   37.5430 C.ar   77  TYR77       0.0417
     62  CZ        -3.2780   -5.3370   38.3510 C.ar   77  TYR77       0.1957
     63  OH        -3.7200   -4.2390   39.0560 O.3    77  TYR77      -0.2866
     64  N          0.9150  -10.8380   40.9300 N.3    80  VAL80      -0.1231
     65  CA         1.1950   -9.6510   41.7180 C.3    80  VAL80       0.1692
     66  C          0.0450   -9.3430   42.6740 C.2    80  VAL80       0.2591
     67  O          0.2650   -9.1020   43.8640 O.2    80  VAL80      -0.2718
     68  CB         1.4650   -8.4290   40.7990 C.3    80  VAL80       0.0266
     69  CG1        1.4380   -7.1170   41.5910 C.3    80  VAL80       0.0020
     70  CG2        2.7940   -8.6060   40.0390 C.3    80  VAL80       0.0020
     71  N         -1.1810   -9.3600   42.1500 N.am   81  LEU81      -0.1980
     72  CA        -2.3640   -9.1110   42.9620 C.3    81  LEU81       0.1596
     73  C         -2.5040  -10.1870   44.0350 C.2    81  LEU81       0.2287
     74  O         -2.8110   -9.8780   45.1860 O.2    81  LEU81      -0.2864
     75  CB        -3.6340   -9.0160   42.0990 C.3    81  LEU81       0.0297
     76  CG        -3.7830   -7.8130   41.1490 C.3    81  LEU81       0.0022
     77  CD1       -5.0670   -7.9330   40.3450 C.3    81  LEU81       0.0001
     78  CD2       -3.7420   -6.4590   41.8950 C.3    81  LEU81       0.0001
     79  N          0.1430   -9.1850   46.6330 N.3    84  ARG84      -0.1245
     80  CA        -0.2270   -7.9610   47.3500 C.3    84  ARG84       0.1563
     81  C         -1.4320   -8.1420   48.2670 C.2    84  ARG84       0.2260
     82  O         -1.3700   -7.7660   49.4390 O.2    84  ARG84      -0.2867
     83  CB        -0.4320   -6.7850   46.3840 C.3    84  ARG84       0.0307
     84  CG         0.8230   -6.4310   45.6070 C.3    84  ARG84       0.0489
     85  CD         0.9010   -4.9670   45.3240 C.3    84  ARG84       0.2205
     86  NE         0.3200   -4.6030   44.0410 N.pl3  84  ARG84      -0.0865
     87  CZ         0.9840   -4.0480   43.0320 C.cat  84  ARG84       0.5346
     88  NH1        2.2760   -3.7830   43.1180 N.pl3  84  ARG84       0.1354
     89  NH2        0.3380   -3.7540   41.9200 N.pl3  84  ARG84       0.1354
     90  N         -4.7840   -3.8180   46.9460 N.3   188  ALA188     -0.1231
     91  CA        -4.4320   -4.1250   45.5600 C.3   188  ALA188      0.1694
     92  C         -3.5790   -3.0160   44.9410 C.2   188  ALA188      0.2592
     93  O         -2.8050   -3.2760   44.0250 O.2   188  ALA188     -0.2718
     94  CB        -5.6750   -4.4040   44.7080 C.3   188  ALA188      0.0304
     95  N         -3.7230   -1.7950   45.4580 N.am  189  ARG189     -0.1966
     96  CA        -3.0450   -0.6230   44.9100 C.3   189  ARG189      0.1729
     97  C         -1.7390   -0.2600   45.6160 C.2   189  ARG189      0.2616
     98  O         -1.0100    0.6070   45.1390 O.2   189  ARG189     -0.2715
     99  CB        -3.9740    0.5940   44.9270 C.3   189  ARG189      0.0348
    100  CG        -5.2050    0.4640   44.0620 C.3   189  ARG189      0.0492
    101  CD        -6.1310    1.6320   44.3110 C.3   189  ARG189      0.2205
    102  NE        -7.5000    1.3350   43.8970 N.pl3 189  ARG189     -0.0865
    103  CZ        -8.5790    1.4990   44.6680 C.cat 189  ARG189      0.5346
    104  NH1       -8.4650    1.9880   45.9030 N.pl3 189  ARG189      0.1354
    105  NH2       -9.7810    1.2040   44.1970 N.pl3 189  ARG189      0.1354
    106  N         -1.4440   -0.9110   46.7420 N.am  190  THR190     -0.1951
    107  CA        -0.2440   -0.6010   47.5600 C.3   190  THR190      0.1897
    108  C         -0.3650    0.7860   48.2010 C.2   190  THR190      0.2313
    109  O          0.6240    1.5070   48.3660 O.2   190  THR190     -0.2863
    110  CB         1.1030   -0.7270   46.7640 C.3   190  THR190      0.1794
    111  OG1        0.9930   -1.7520   45.7690 O.3   190  THR190     -0.2208
    112  CG2        2.2670   -1.0830   47.7030 C.3   190  THR190      0.0378
    113  N        -12.8060   -4.4590   36.1010 N.3   304  LEU304     -0.1245
    114  CA       -11.8600   -3.8880   35.1580 C.3   304  LEU304      0.1561
    115  C        -11.0100   -5.0310   34.6170 C.2   304  LEU304      0.2260
    116  O         -9.9860   -5.4060   35.2000 O.2   304  LEU304     -0.2867
    117  CB       -10.9940   -2.8070   35.8190 C.3   304  LEU304      0.0270
    118  CG       -10.1040   -1.9560   34.8970 C.3   304  LEU304      0.0019
    119  CD1      -10.8910   -1.0940   33.9020 C.3   304  LEU304      0.0001
    120  CD2       -9.1630   -1.0940   35.6970 C.3   304  LEU304      0.0001
    121  N         -8.3110   -6.7960   33.0320 N.3   306  THR306     -0.1218
    122  CA        -6.9530   -6.3070   32.8140 C.3   306  THR306      0.1862
    123  C         -6.0400   -7.3970   32.2570 C.2   306  THR306      0.2287
    124  O         -6.1530   -8.5670   32.6370 O.2   306  THR306     -0.2866
    125  CB        -6.3930   -5.7000   34.1220 C.3   306  THR306      0.1770
    126  OG1       -7.2610   -4.6440   34.5610 O.3   306  THR306     -0.2211
    127  CG2       -5.0070   -5.1430   33.9260 C.3   306  THR306      0.0375
    128  N          0.0540   -2.4540   29.6740 N.3   330  ARG330     -0.1245
    129  CA        -1.1650   -3.1330   30.0860 C.3   330  ARG330      0.1563
    130  C         -2.3120   -2.7550   29.1670 C.2   330  ARG330      0.2260
    131  O         -2.3220   -1.6600   28.6190 O.2   330  ARG330     -0.2867
    132  CB        -1.5500   -2.7600   31.5020 C.3   330  ARG330      0.0307
    133  CG        -0.7910   -3.4780   32.5560 C.3   330  ARG330      0.0489
    134  CD        -1.7540   -4.0360   33.5780 C.3   330  ARG330      0.2205
    135  NE        -1.3360   -3.7020   34.9290 N.pl3 330  ARG330     -0.0865
    136  CZ        -0.2760   -4.2060   35.5470 C.cat 330  ARG330      0.5346
    137  NH1        0.5010   -5.0990   34.9440 N.pl3 330  ARG330      0.1354
    138  NH2        0.0020   -3.8010   36.7740 N.pl3 330  ARG330      0.1354
    139  N         -6.5650   -2.5340   29.5060 N.3   332  CYS332     -0.1235
    140  CA        -7.8050   -2.6410   30.2870 C.3   332  CYS332      0.1677
    141  C         -9.0400   -2.4780   29.4110 C.2   332  CYS332      0.2270
    142  O         -9.0720   -1.6680   28.4750 O.2   332  CYS332     -0.2867
    143  CB        -7.8640   -1.6210   31.4300 C.3   332  CYS332      0.0956
    144  SG        -6.5570   -1.7610   32.6610 S.3   332  CYS332     -0.0801
    145  N        -14.6500    0.4410   42.1420 N.3   427  TYR427     -0.1227
    146  CA       -14.6670    0.3700   40.6820 C.3   427  TYR427      0.1736
    147  C        -13.4860   -0.4460   40.1860 C.2   427  TYR427      0.2596
    148  O        -12.3370   -0.1640   40.5390 O.2   427  TYR427     -0.2718
    149  CB       -14.6650    1.7690   40.0610 C.3   427  TYR427      0.0548
    150  CG       -15.9840    2.5230   40.2050 C.ar  427  TYR427     -0.0200
    151  CD1      -17.1480    2.0830   39.5640 C.ar  427  TYR427     -0.0009
    152  CD2      -16.0580    3.6820   40.9640 C.ar  427  TYR427     -0.0009
    153  CE1      -18.3440    2.7710   39.7020 C.ar  427  TYR427      0.0417
    154  CE2      -17.2460    4.3750   41.1060 C.ar  427  TYR427      0.0417
    155  CZ       -18.3840    3.9270   40.4680 C.ar  427  TYR427      0.1957
    156  OH       -19.5590    4.6370   40.6110 O.3   427  TYR427     -0.2866
    157  N        -13.7890   -1.4880   39.4090 N.am  428  GLY428     -0.1942
    158  CA       -12.7690   -2.3670   38.8690 C.3   428  GLY428      0.2014
    159  C        -12.7550   -3.7380   39.5220 C.2   428  GLY428      0.2638
    160  O        -12.1960   -4.6900   38.9590 O.2   428  GLY428     -0.2714
    161  N        -13.3890   -3.8620   40.6880 N.am  429  PHE429     -0.1973
    162  CA       -13.1940   -5.0650   41.5210 C.3   429  PHE429      0.1639
    163  C        -14.3200   -6.0880   41.5100 C.2   429  PHE429      0.2290
    164  O        -14.2390   -7.0960   42.2000 O.2   429  PHE429     -0.2864
    165  CB       -12.7920   -4.6950   42.9560 C.3   429  PHE429      0.0560
    166  CG       -11.3870   -4.1710   43.0670 C.ar  429  PHE429     -0.0200
    167  CD1      -10.3090   -5.0480   43.1090 C.ar  429  PHE429     -0.0042
    168  CD2      -11.1460   -2.8040   43.0970 C.ar  429  PHE429     -0.0042
    169  CE1       -9.0110   -4.5680   43.1910 C.ar  429  PHE429     -0.0003
    170  CE2       -9.8580   -2.3130   43.1830 C.ar  429  PHE429     -0.0003
    171  CZ        -8.7840   -3.1990   43.2300 C.ar  429  PHE429     -0.0000
@<TRIPOS>BOND
     1   142   141    2
     2   131   130    2
     3   130   129    1
     4    46    47    2
     5    46    45    1
     6   141   140    1
     7   139   140    1
     8   128   129    1
     9   129   132    1
    10   140   143    1
    11    44    45    1
    12    45    48    1
    13   143   144    1
    14   132   133    1
    15    50    48    1
    16    48    49    1
    17   123   124    2
    18   123   122    1
    19   133   134    1
    20    38    39    2
    21    38    37    1
    22   122   121    1
    23   122   125    1
    24    49    51    1
    25    37    40    1
    26    37    36    1
    27   134   135    1
    28   119   118    1
    29   127   125    1
    30   125   126    1
    31    40    41    1
    32    43    41    1
    33   115   114    1
    34   115   116    2
    35    26    27    1
    36    15    16   ar
    37    15    13   ar
    38   118   120    1
    39   118   117    1
    40   135   136    2
    41   137   136    1
    42    41    42    1
    43    16    14   ar
    44   114   117    1
    45   114   113    1
    46   136   138    1
    47    13    11   ar
    48    14    12   ar
    49    24    23    2
    50    27    30    1
    51    27    28    1
    52    56    57    1
    53    56    53    1
    54    52    53    1
    55    29    28    2
    56    28    31   am
    57    11    12   ar
    58    11    10    1
    59    59    57   ar
    60    59    61   ar
    61    57    58   ar
    62    53    54    1
    63    23    22    1
    64    33    34    2
    65    33    32    1
    66    61    62   ar
    67    31    32    1
    68    58    60   ar
    69    10     7    1
    70    25    22    1
    71    54    55    2
    72    22    21    1
    73    62    60   ar
    74    62    63    1
    75    32    35    1
    76     7     6    1
    77     7     8    1
    78     1     2    1
    79   158   157    1
    80   158   159    1
    81   160   159    2
    82   157   147   am
    83   159   161   am
    84     2     5    1
    85     2     3    1
    86   151   153   ar
    87   151   150   ar
    88   153   155   ar
    89     9     8    2
    90     8    17   am
    91    70    68    1
    92   149   150    1
    93   149   146    1
    94   147   148    2
    95   147   146    1
    96   150   152   ar
    97    77    76    1
    98   155   156    1
    99   155   154   ar
   100     3     4    2
   101   146   145    1
   102   161   162    1
   103    17    18    1
   104    68    69    1
   105    68    65    1
   106    64    65    1
   107   152   154   ar
   108    76    78    1
   109    76    75    1
   110   163   162    1
   111   163   164    2
   112   162   165    1
   113    65    66    1
   114    89    87    1
   115    18    19    1
   116    75    72    1
   117    71    66   am
   118    71    72    1
   119    66    67    2
   120    19    20    2
   121   165   166    1
   122    72    73    1
   123    87    88    1
   124    87    86    2
   125   166   168   ar
   126   166   167   ar
   127   168   170   ar
   128   167   169   ar
   129   170   171   ar
   130   169   171   ar
   131   102   101    1
   132   102   103    2
   133    93    92    2
   134    73    74    2
   135    86    85    1
   136   100   101    1
   137   100    99    1
   138   105   103    1
   139   103   104    1
   140    94    91    1
   141    96    99    1
   142    96    95    1
   143    96    97    1
   144    92    95   am
   145    92    91    1
   146    98    97    2
   147    85    84    1
   148    91    90    1
   149    84    83    1
   150    97   106   am
   151   111   110    1
   152    83    80    1
   153    79    80    1
   154   106   107    1
   155   110   107    1
   156   110   112    1
   157    80    81    1
   158   107   108    1
   159   108   109    2
   160    81    82    2
