@<TRIPOS>MOLECULE
tmp/3b99A02.pdb
 190 187 0 0 0
SMALL
GASTEIGER

@<TRIPOS>ATOM
      1  N         -3.2680  -12.8590   31.3670 N.3    74  GLN74      -0.1231
      2  CA        -3.9260  -12.5890   32.6550 C.3    74  GLN74       0.1698
      3  C         -2.9980  -12.9050   33.8380 C.2    74  GLN74       0.2592
      4  O         -3.0330  -12.2310   34.8710 O.2    74  GLN74      -0.2718
      5  CB        -5.2090  -13.4200   32.7750 C.3    74  GLN74       0.0381
      6  CG        -6.2140  -12.8980   33.7900 C.3    74  GLN74       0.0905
      7  CD        -7.3130  -13.9090   34.1240 C.2    74  GLN74       0.2608
      8  OE1       -7.0480  -14.9610   34.7120 O.2    74  GLN74      -0.2717
      9  NE2       -8.5490  -13.5870   33.7610 N.am   74  GLN74      -0.0878
     10  N         -2.1470  -13.9110   33.6540 N.am   75  THR75      -0.1953
     11  CA        -1.4840  -14.6220   34.7510 C.3    75  THR75       0.1897
     12  C         -0.5000  -13.8250   35.6130 C.2    75  THR75       0.2313
     13  O         -0.5390  -13.9140   36.8450 O.2    75  THR75      -0.2863
     14  CB        -0.8030  -15.9210   34.2230 C.3    75  THR75       0.1794
     15  OG1       -1.8050  -16.7760   33.6610 O.3    75  THR75      -0.2208
     16  CG2       -0.0840  -16.6720   35.3360 C.3    75  THR75       0.0378
     17  N         -2.3010  -11.2880   37.8730 N.3    78  ALA78      -0.1231
     18  CA        -2.9370  -12.1200   38.8900 C.3    78  ALA78       0.1694
     19  C         -1.9490  -12.5630   39.9680 C.2    78  ALA78       0.2591
     20  O         -2.3070  -12.5890   41.1330 O.2    78  ALA78      -0.2718
     21  CB        -3.6490  -13.3330   38.2450 C.3    78  ALA78       0.0304
     22  N         -0.7170  -12.8890   39.5790 N.am   79  GLN79      -0.1979
     23  CA         0.3560  -13.1710   40.5410 C.3    79  GLN79       0.1601
     24  C          0.6190  -12.0030   41.4950 C.2    79  GLN79       0.2287
     25  O          0.5700  -12.1630   42.7170 O.2    79  GLN79      -0.2864
     26  CB         1.6650  -13.5370   39.8230 C.3    79  GLN79       0.0394
     27  CG         1.7340  -14.9690   39.3260 C.3    79  GLN79       0.0908
     28  CD         3.1550  -15.4350   38.9950 C.2    79  GLN79       0.2608
     29  OE1        4.1500  -14.8510   39.4610 O.2    79  GLN79      -0.2717
     30  NE2        3.2550  -16.4990   38.1930 N.am   79  GLN79      -0.0878
     31  N         -1.1810   -9.3600   42.1500 N.3    81  LEU81      -0.1231
     32  CA        -2.3640   -9.1110   42.9620 C.3    81  LEU81       0.1693
     33  C         -2.5040  -10.1870   44.0350 C.2    81  LEU81       0.2592
     34  O         -2.8110   -9.8780   45.1860 O.2    81  LEU81      -0.2718
     35  CB        -3.6340   -9.0160   42.0990 C.3    81  LEU81       0.0284
     36  CG        -3.7830   -7.8130   41.1490 C.3    81  LEU81       0.0019
     37  CD1       -5.0670   -7.9330   40.3450 C.3    81  LEU81       0.0001
     38  CD2       -3.7420   -6.4590   41.8950 C.3    81  LEU81       0.0001
     39  N         -2.2490  -11.4400   43.6690 N.am   82  MET82      -0.1965
     40  CA        -2.2900  -12.5120   44.6460 C.3    82  MET82       0.1736
     41  C         -1.2970  -12.2840   45.7840 C.2    82  MET82       0.2616
     42  O         -1.6220  -12.5630   46.9450 O.2    82  MET82      -0.2715
     43  CB        -2.0450  -13.8670   44.0010 C.3    82  MET82       0.0427
     44  CG        -2.4460  -15.0040   44.8990 C.3    82  MET82       0.0599
     45  SD        -1.6120  -16.5380   44.5160 S.3    82  MET82      -0.1393
     46  CE        -2.7290  -17.2040   43.3130 C.3    82  MET82       0.0692
     47  N         -0.1110  -11.7620   45.4540 N.am   83  LYS83      -0.1977
     48  CA         0.9150  -11.4730   46.4560 C.3    83  LYS83       0.1596
     49  C          0.5320  -10.2660   47.2970 C.2    83  LYS83       0.2287
     50  O          0.5540  -10.3180   48.5330 O.2    83  LYS83      -0.2864
     51  CB         2.2930  -11.2790   45.8120 C.3    83  LYS83       0.0298
     52  CG         2.7690  -12.5020   45.0270 C.3    83  LYS83       0.0038
     53  CD         4.0850  -12.2830   44.2550 C.3    83  LYS83       0.0206
     54  CE         4.3530  -13.4700   43.3290 C.3    83  LYS83       0.1093
     55  NZ         5.8020  -13.8040   43.2210 N.3    83  LYS83      -0.1314
     56  N         -2.5080   -8.7460   47.7530 N.3    85  ILE85      -0.1231
     57  CA        -3.7670   -8.8710   48.5160 C.3    85  ILE85       0.1692
     58  C         -3.8150  -10.0400   49.5240 C.2    85  ILE85       0.2592
     59  O         -4.2410   -9.8580   50.6730 O.2    85  ILE85      -0.2718
     60  CB        -5.0160   -8.9800   47.5960 C.3    85  ILE85       0.0266
     61  CG1       -5.1180   -7.7930   46.6280 C.3    85  ILE85       0.0019
     62  CG2       -6.2810   -9.1050   48.4380 C.3    85  ILE85       0.0020
     63  CD1       -6.0170   -8.0750   45.4650 C.3    85  ILE85       0.0001
     64  N         -3.4140  -11.2320   49.0890 N.am   86  PHE86      -0.1976
     65  CA        -3.6060  -12.4260   49.9050 C.3    86  PHE86       0.1639
     66  C         -2.3290  -12.9420   50.6070 C.2    86  PHE86       0.2290
     67  O         -2.3660  -13.9750   51.2950 O.2    86  PHE86      -0.2864
     68  CB        -4.2370  -13.5380   49.0670 C.3    86  PHE86       0.0560
     69  CG        -5.5830  -13.1880   48.5150 C.ar   86  PHE86      -0.0200
     70  CD1       -6.7250  -13.3070   49.2990 C.ar   86  PHE86      -0.0042
     71  CD2       -5.7170  -12.7310   47.2090 C.ar   86  PHE86      -0.0042
     72  CE1       -7.9650  -12.9750   48.7810 C.ar   86  PHE86      -0.0003
     73  CE2       -6.9620  -12.4070   46.7010 C.ar   86  PHE86      -0.0003
     74  CZ        -8.0710  -12.5220   47.4820 C.ar   86  PHE86      -0.0000
     75  N          1.7940  -17.1440   47.5240 N.3    89  ILE89      -0.1231
     76  CA         2.6390  -17.6040   46.4350 C.3    89  ILE89       0.1692
     77  C          2.2720  -19.0730   46.1690 C.2    89  ILE89       0.2592
     78  O          1.9730  -19.8180   47.1090 O.2    89  ILE89      -0.2718
     79  CB         4.1190  -17.4070   46.8410 C.3    89  ILE89       0.0266
     80  CG1        4.6340  -16.0800   46.2940 C.3    89  ILE89       0.0019
     81  CG2        5.0180  -18.5820   46.4270 C.3    89  ILE89       0.0020
     82  CD1        5.5960  -15.3870   47.2400 C.3    89  ILE89       0.0001
     83  N          2.2430  -19.4870   44.9050 N.am   90  LEU90      -0.1966
     84  CA         1.9160  -20.8830   44.5860 C.3    90  LEU90       0.1713
     85  C          2.9000  -21.4610   43.5800 C.2    90  LEU90       0.2458
     86  O          2.5350  -21.6990   42.4260 O.2    90  LEU90      -0.2730
     87  CB         0.4780  -21.0140   44.0550 C.3    90  LEU90       0.0310
     88  CG        -0.7040  -20.6530   44.9630 C.3    90  LEU90       0.0022
     89  CD1       -2.0190  -20.6670   44.1950 C.3    90  LEU90       0.0001
     90  CD2       -0.7830  -21.5690   46.1870 C.3    90  LEU90       0.0001
     91  N          4.1510  -21.7130   44.0050 N.am   91  PRO91      -0.2716
     92  CA         5.1630  -22.0490   42.9940 C.3    91  PRO91       0.1536
     93  C          4.7590  -23.2760   42.1850 C.2    91  PRO91       0.2599
     94  O          4.2490  -24.2450   42.7510 O.2    91  PRO91      -0.2715
     95  CB         6.4200  -22.3400   43.8240 C.3    91  PRO91       0.0310
     96  CG         5.9390  -22.5790   45.2200 C.3    91  PRO91       0.0237
     97  CD         4.7030  -21.7440   45.3730 C.3    91  PRO91       0.0939
     98  N          4.9770  -23.2080   40.8720 N.am   92  SER92      -0.1936
     99  CA         4.6650  -24.2940   39.9200 C.3    92  SER92       0.2055
    100  C          3.1750  -24.6140   39.7110 C.2    92  SER92       0.2643
    101  O          2.8380  -25.5840   39.0320 O.2    92  SER92      -0.2714
    102  CB         5.5110  -25.5670   40.1640 C.3    92  SER92       0.2130
    103  OG         5.7980  -25.7960   41.5360 O.3    92  SER92      -0.2179
    104  N          2.2890  -23.7820   40.2480 N.am   93  HIS93      -0.1973
    105  CA         0.8560  -23.9580   40.0380 C.3    93  HIS93       0.1656
    106  C          0.4950  -23.8740   38.5650 C.2    93  HIS93       0.2291
    107  O          0.9170  -22.9510   37.8720 O.2    93  HIS93      -0.2864
    108  CB         0.0580  -22.9220   40.8350 C.3    93  HIS93       0.0771
    109  CG        -1.4270  -23.1150   40.7720 C.ar   93  HIS93       0.0820
    110  ND1       -2.0440  -24.2840   41.1620 N.ar   93  HIS93      -0.2267
    111  CD2       -2.4190  -22.2770   40.3900 C.ar   93  HIS93       0.1154
    112  CE1       -3.3490  -24.1660   41.0040 C.ar   93  HIS93       0.1986
    113  NE2       -3.6040  -22.9550   40.5460 N.ar   93  HIS93      -0.2212
    114  N         -2.5490  -23.1170   36.4260 N.3    95  PRO95      -0.2116
    115  CA        -3.8650  -22.4900   36.5240 C.3    95  PRO95       0.1372
    116  C         -4.8820  -23.0780   35.5510 C.2    95  PRO95       0.2244
    117  O         -6.0890  -22.8850   35.7330 O.2    95  PRO95      -0.2868
    118  CB        -3.5830  -21.0230   36.1620 C.3    95  PRO95       0.0268
    119  CG        -2.0730  -20.8800   36.2150 C.3    95  PRO95       0.0207
    120  CD        -1.5690  -22.2110   35.8040 C.3    95  PRO95       0.0892
    121  N         -7.1440  -26.0350   36.8120 N.3    98  GLU98      -0.1245
    122  CA        -8.0670  -25.5610   37.8360 C.3    98  GLU98       0.1567
    123  C         -9.0990  -24.5740   37.2850 C.2    98  GLU98       0.2260
    124  O        -10.1490  -24.3760   37.8980 O.2    98  GLU98      -0.2867
    125  CB        -7.3230  -25.0400   39.0790 C.3    98  GLU98       0.0388
    126  CG        -6.8880  -23.5860   39.0570 C.3    98  GLU98       0.1160
    127  CD        -7.7260  -22.6930   39.9680 C.2    98  GLU98       0.3649
    128  OE1       -7.1370  -21.8230   40.6560 O.co2  98  GLU98      -0.2457
    129  OE2       -8.9680  -22.8470   39.9950 O.co2  98  GLU98      -0.2457
    130  N         -9.2360  -28.9710   44.3420 N.3   229  TYR229     -0.1241
    131  CA        -8.3690  -27.8060   44.3150 C.3   229  TYR229      0.1605
    132  C         -7.2070  -27.9890   45.2930 C.2   229  TYR229      0.2264
    133  O         -6.0540  -27.8140   44.9160 O.2   229  TYR229     -0.2867
    134  CB        -9.1660  -26.5370   44.6320 C.3   229  TYR229      0.0534
    135  CG        -8.3020  -25.3080   44.7880 C.ar  229  TYR229     -0.0201
    136  CD1       -7.7330  -24.6920   43.6760 C.ar  229  TYR229     -0.0009
    137  CD2       -8.0420  -24.7710   46.0430 C.ar  229  TYR229     -0.0009
    138  CE1       -6.9310  -23.5670   43.8110 C.ar  229  TYR229      0.0417
    139  CE2       -7.2410  -23.6560   46.1900 C.ar  229  TYR229      0.0417
    140  CZ        -6.6940  -23.0550   45.0710 C.ar  229  TYR229      0.1957
    141  OH        -5.9070  -21.9330   45.1960 O.3   229  TYR229     -0.2866
    142  N         -8.1110  -16.8880   49.4650 N.3   249  LEU249     -0.1231
    143  CA        -8.2070  -16.5470   48.0430 C.3   249  LEU249      0.1693
    144  C         -9.4910  -17.1030   47.4270 C.2   249  LEU249      0.2591
    145  O        -10.2050  -16.3800   46.7140 O.2   249  LEU249     -0.2718
    146  CB        -6.9880  -17.0530   47.2660 C.3   249  LEU249      0.0284
    147  CG        -7.0860  -17.0560   45.7310 C.3   249  LEU249      0.0019
    148  CD1       -7.1480  -15.6460   45.1160 C.3   249  LEU249      0.0001
    149  CD2       -5.9440  -17.8400   45.1520 C.3   249  LEU249      0.0001
    150  N         -9.7880  -18.3720   47.7080 N.am  250  GLN250     -0.1979
    151  CA       -10.9770  -18.9980   47.1580 C.3   250  GLN250      0.1601
    152  C        -12.2460  -18.4970   47.8350 C.2   250  GLN250      0.2287
    153  O        -13.3270  -18.5450   47.2310 O.2   250  GLN250     -0.2864
    154  CB       -10.9100  -20.5270   47.2190 C.3   250  GLN250      0.0394
    155  CG        -9.8130  -21.1790   46.3780 C.3   250  GLN250      0.0908
    156  CD        -9.7330  -20.6460   44.9630 C.2   250  GLN250      0.2608
    157  OE1      -10.6650  -20.0400   44.4500 O.2   250  GLN250     -0.2717
    158  NE2       -8.6060  -20.8680   44.3280 N.am  250  GLN250     -0.0878
    159  N        -12.7260  -15.3160   48.7290 N.3   252  TRP252     -0.1227
    160  CA       -13.0210  -14.0750   48.0160 C.3   252  TRP252      0.1737
    161  C        -13.5710  -14.3160   46.6170 C.2   252  TRP252      0.2595
    162  O        -14.5160  -13.6600   46.1830 O.2   252  TRP252     -0.2718
    163  CB       -11.8050  -13.1180   47.9500 C.3   252  TRP252      0.0564
    164  CG       -12.1300  -11.8730   47.1270 C.ar  252  TRP252      0.0003
    165  CD1      -12.9170  -10.8210   47.5050 C.ar  252  TRP252      0.0946
    166  CD2      -11.7320  -11.6090   45.7760 C.ar  252  TRP252      0.0152
    167  NE1      -13.0200   -9.9010   46.4740 N.ar  252  TRP252     -0.2442
    168  CE2      -12.3030  -10.3650   45.4030 C.ar  252  TRP252      0.0810
    169  CE3      -10.9470  -12.3010   44.8440 C.ar  252  TRP252      0.0012
    170  CZ2      -12.1010   -9.7980   44.1450 C.ar  252  TRP252      0.0191
    171  CZ3      -10.7480  -11.7330   43.5870 C.ar  252  TRP252      0.0001
    172  CH2      -11.3230  -10.5010   43.2490 C.ar  252  TRP252      0.0015
    173  N        -12.9690  -15.2580   45.9100 N.am  253  VAL253     -0.1980
    174  CA       -13.3630  -15.5510   44.5420 C.3   253  VAL253      0.1595
    175  C        -14.8150  -15.9810   44.4900 C.2   253  VAL253      0.2287
    176  O        -15.5230  -15.6450   43.5390 O.2   253  VAL253     -0.2864
    177  CB       -12.4570  -16.6440   43.9040 C.3   253  VAL253      0.0276
    178  CG1      -13.1240  -17.2620   42.6840 C.3   253  VAL253      0.0022
    179  CG2      -11.1130  -16.0680   43.5380 C.3   253  VAL253      0.0022
    180  N        -13.3890   -3.8620   40.6880 N.3   429  PHE429     -0.1241
    181  CA       -13.1940   -5.0650   41.5210 C.3   429  PHE429      0.1605
    182  C        -14.3200   -6.0880   41.5100 C.2   429  PHE429      0.2264
    183  O        -14.2390   -7.0960   42.2000 O.2   429  PHE429     -0.2867
    184  CB       -12.7920   -4.6950   42.9560 C.3   429  PHE429      0.0534
    185  CG       -11.3870   -4.1710   43.0670 C.ar  429  PHE429     -0.0203
    186  CD1      -10.3090   -5.0480   43.1090 C.ar  429  PHE429     -0.0042
    187  CD2      -11.1460   -2.8040   43.0970 C.ar  429  PHE429     -0.0042
    188  CE1       -9.0110   -4.5680   43.1910 C.ar  429  PHE429     -0.0003
    189  CE2       -9.8580   -2.3130   43.1830 C.ar  429  PHE429     -0.0003
    190  CZ        -8.7840   -3.1990   43.2300 C.ar  429  PHE429     -0.0000
@<TRIPOS>BOND
     1     1     2    1
     2     2     5    1
     3     2     3    1
     4     5     6    1
     5    10     3   am
     6    10    11    1
     7    15    14    1
     8     9     7   am
     9     6     7    1
    10     3     4    2
    11     7     8    2
    12    14    11    1
    13    14    16    1
    14    11    12    1
    15   116   117    2
    16   116   115    1
    17    12    13    2
    18   120   119    1
    19   120   114    1
    20   118   119    1
    21   118   115    1
    22   114   115    1
    23   121   122    1
    24   123   122    1
    25   123   124    2
    26   122   125    1
    27   107   106    2
    28    17    18    1
    29    30    28   am
    30    21    18    1
    31   106   105    1
    32    18    19    1
    33    28    27    1
    34    28    29    2
    35   101   100    2
    36   126   125    1
    37   126   127    1
    38    27    26    1
    39    22    19   am
    40    22    23    1
    41   100    99    1
    42   100   104   am
    43    26    23    1
    44    99   102    1
    45    99    98    1
    46    19    20    2
    47   127   129   ar
    48   127   128   ar
    49   105   104    1
    50   105   108    1
    51   102   103    1
    52    37    36    1
    53   111   113   ar
    54   111   109   ar
    55    23    24    1
    56   113   112   ar
    57   180   181    1
    58   109   108    1
    59   109   110   ar
    60    98    93   am
    61   112   110   ar
    62    36    38    1
    63    36    35    1
    64    24    25    2
    65   182   181    1
    66   182   183    2
    67   181   184    1
    68    35    32    1
    69    31    32    1
    70    93    94    2
    71    93    92    1
    72    86    85    2
    73   178   177    1
    74   184   185    1
    75    32    33    1
    76    92    95    1
    77    92    91    1
    78   185   187   ar
    79   185   186   ar
    80   187   189   ar
    81   186   188   ar
    82   189   190   ar
    83   188   190   ar
    84    55    54    1
    85   172   171   ar
    86   172   170   ar
    87    46    45    1
    88    54    53    1
    89   179   177    1
    90   176   175    2
    91    85    91   am
    92    85    84    1
    93   171   169   ar
    94    39    33   am
    95    39    40    1
    96   136   138   ar
    97   136   135   ar
    98   138   140   ar
    99    95    96    1
   100   177   174    1
   101    43    40    1
   102    43    44    1
   103    91    97    1
   104    33    34    2
   105    87    84    1
   106    87    88    1
   107   170   168   ar
   108    89    88    1
   109    53    52    1
   110   131   130    1
   111   131   134    1
   112   131   132    1
   113   158   156   am
   114   157   156    2
   115   175   174    1
   116    45    44    1
   117   174   173    1
   118    84    83    1
   119   134   135    1
   120    40    41    1
   121   135   137   ar
   122   169   166   ar
   123    83    77   am
   124   133   132    2
   125   156   155    1
   126    88    90    1
   127    52    51    1
   128   140   141    1
   129   140   139   ar
   130   148   147    1
   131   149   147    1
   132    96    97    1
   133   168   166   ar
   134   168   167   ar
   135    47    41   am
   136    47    48    1
   137    63    61    1
   138   147   146    1
   139   166   164   ar
   140    41    42    2
   141    51    48    1
   142   173   161   am
   143   137   139   ar
   144    77    76    1
   145    77    78    2
   146   162   161    2
   147    80    79    1
   148    80    82    1
   149   155   154    1
   150    81    79    1
   151    76    79    1
   152    76    75    1
   153    48    49    1
   154   167   165   ar
   155   161   160    1
   156    61    60    1
   157    73    71   ar
   158    73    74   ar
   159   145   144    2
   160   164   165   ar
   161   164   163    1
   162   151   154    1
   163   151   150    1
   164   151   152    1
   165    71    69   ar
   166   153   152    2
   167   146   143    1
   168    49    50    2
   169   144   150   am
   170   144   143    1
   171    74    72   ar
   172    60    62    1
   173    60    57    1
   174    56    57    1
   175   163   160    1
   176   160   159    1
   177   143   142    1
   178    69    68    1
   179    69    70   ar
   180    57    58    1
   181    72    70   ar
   182    68    65    1
   183    64    58   am
   184    64    65    1
   185    58    59    2
   186    65    66    1
   187    66    67    2
