@<TRIPOS>MOLECULE
tmp/3b9fB01.pdb
 114 112 0 0 0
SMALL
GASTEIGER

@<TRIPOS>ATOM
      1  N        -27.6570   25.1170  -31.6690 N.3    87  HIS87      -0.1227
      2  CA       -29.0210   25.3310  -31.2070 C.3    87  HIS87       0.1737
      3  C        -29.0830   24.9530  -29.7300 C.2    87  HIS87       0.2438
      4  O        -28.6960   23.8480  -29.3480 O.2    87  HIS87      -0.2733
      5  CB       -30.0160   24.4910  -32.0100 C.3    87  HIS87       0.0758
      6  CG       -31.4340   24.9380  -31.8430 C.ar   87  HIS87       0.0818
      7  ND1      -32.0730   24.9350  -30.6210 N.ar   87  HIS87      -0.2268
      8  CD2      -32.3110   25.4730  -32.7250 C.ar   87  HIS87       0.1154
      9  CE1      -33.2800   25.4530  -30.7570 C.ar   87  HIS87       0.1986
     10  NE2      -33.4500   25.7890  -32.0230 N.ar   87  HIS87      -0.2212
     11  N        -29.5690   25.8730  -28.8780 N.am   88  PRO88      -0.2718
     12  CA       -29.6640   25.6140  -27.4370 C.3    88  PRO88       0.1535
     13  C        -30.5120   24.4170  -27.0260 C.2    88  PRO88       0.2598
     14  O        -30.3130   23.8550  -25.9450 O.2    88  PRO88      -0.2715
     15  CB       -30.1940   26.9380  -26.8800 C.3    88  PRO88       0.0310
     16  CG       -30.9860   27.4980  -28.0070 C.3    88  PRO88       0.0237
     17  CD       -30.1150   27.2000  -29.2120 C.3    88  PRO88       0.0939
     18  N        -31.4560   24.0160  -27.8690 N.am   89  ARG89      -0.1978
     19  CA       -32.2870   22.8710  -27.5290 C.3    89  ARG89       0.1597
     20  C        -31.9430   21.6340  -28.3500 C.2    89  ARG89       0.2287
     21  O        -32.7640   20.7310  -28.5090 O.2    89  ARG89      -0.2864
     22  CB       -33.7710   23.2190  -27.6680 C.3    89  ARG89       0.0334
     23  CG       -34.2310   24.2740  -26.6660 C.3    89  ARG89       0.0492
     24  CD       -35.7130   24.1550  -26.3480 C.3    89  ARG89       0.2205
     25  NE       -36.5580   24.3010  -27.5280 N.pl3  89  ARG89      -0.0865
     26  CZ       -37.8850   24.2260  -27.5060 C.cat  89  ARG89       0.5346
     27  NH1      -38.5200   24.0070  -26.3620 N.pl3  89  ARG89       0.1354
     28  NH2      -38.5800   24.3680  -28.6250 N.pl3  89  ARG89       0.1354
     29  N        -32.6110   15.9800  -31.9600 N.3    97  ASP97      -0.1225
     30  CA       -33.5970   16.9360  -32.4670 C.3    97  ASP97       0.1805
     31  C        -32.8920   18.2920  -32.5640 C.2    97  ASP97       0.2597
     32  O        -32.0670   18.6230  -31.7060 O.2    97  ASP97      -0.2718
     33  CB       -34.7830   17.0120  -31.4950 C.3    97  ASP97       0.1424
     34  CG       -35.9240   17.8690  -32.0100 C.2    97  ASP97       0.3668
     35  OD1      -36.0630   18.0340  -33.2390 O.co2  97  ASP97      -0.2456
     36  OD2      -36.7090   18.3680  -31.1720 O.co2  97  ASP97      -0.2456
     37  N        -33.2090   19.0520  -33.6110 N.am   98  ARG98      -0.1979
     38  CA       -32.6020   20.3640  -33.8530 C.3    98  ARG98       0.1597
     39  C        -31.0820   20.2300  -33.9840 C.2    98  ARG98       0.2287
     40  O        -30.3170   20.9150  -33.3090 O.2    98  ARG98      -0.2864
     41  CB       -32.9550   21.3320  -32.7180 C.3    98  ARG98       0.0334
     42  CG       -34.4470   21.4040  -32.4250 C.3    98  ARG98       0.0492
     43  CD       -34.7750   22.4930  -31.4120 C.3    98  ARG98       0.2205
     44  NE       -36.1200   22.3400  -30.8610 N.pl3  98  ARG98      -0.0865
     45  CZ       -36.4450   21.4560  -29.9200 C.cat  98  ARG98       0.5346
     46  NH1      -35.5230   20.6450  -29.4150 N.pl3  98  ARG98       0.1354
     47  NH2      -37.6950   21.3780  -29.4850 N.pl3  98  ARG98       0.1354
     48  N        -40.7570   17.0610  -36.0460 N.3   177  ASP177     -0.1225
     49  CA       -41.0190   17.8600  -37.2330 C.3   177  ASP177      0.1805
     50  C        -39.7870   18.6400  -37.6870 C.2   177  ASP177      0.2597
     51  O        -39.8180   19.2850  -38.7250 O.2   177  ASP177     -0.2718
     52  CB       -42.1770   18.8330  -36.9850 C.3   177  ASP177      0.1424
     53  CG       -43.4870   18.1210  -36.7130 C.2   177  ASP177      0.3668
     54  OD1      -43.6950   17.0190  -37.2670 O.co2 177  ASP177     -0.2456
     55  OD2      -44.3140   18.6700  -35.9600 O.co2 177  ASP177     -0.2456
     56  N        -38.7070   18.5840  -36.9130 N.am  178  ASN178     -0.1974
     57  CA       -37.4790   19.2880  -37.2870 C.3   178  ASN178      0.1688
     58  C        -36.5710   18.3460  -38.0460 C.2   178  ASN178      0.2292
     59  O        -35.3910   18.6370  -38.2500 O.2   178  ASN178     -0.2864
     60  CB       -36.7480   19.7900  -36.0530 C.3   178  ASN178      0.1181
     61  CG       -37.5890   20.7320  -35.2430 C.2   178  ASN178      0.2629
     62  OD1      -38.1090   21.7170  -35.7680 O.2   178  ASN178     -0.2716
     63  ND2      -37.7420   20.4320  -33.9580 N.am  178  ASN178     -0.0877
     64  N        -37.8060   24.6710  -41.0380 N.3   239  ARG239     -0.1231
     65  CA       -38.4170   24.7480  -39.7190 C.3   239  ARG239      0.1694
     66  C        -37.5400   25.3930  -38.6560 C.2   239  ARG239      0.2591
     67  O        -38.0310   25.7890  -37.5970 O.2   239  ARG239     -0.2718
     68  CB       -38.9050   23.3640  -39.2880 C.3   239  ARG239      0.0321
     69  CG       -40.2500   23.0680  -39.9350 C.3   239  ARG239      0.0489
     70  CD       -40.7840   21.6850  -39.6800 C.3   239  ARG239      0.2205
     71  NE       -42.0940   21.5370  -40.3110 N.pl3 239  ARG239     -0.0865
     72  CZ       -42.6450   20.3750  -40.6410 C.cat 239  ARG239      0.5346
     73  NH1      -43.8430   20.3530  -41.2100 N.pl3 239  ARG239      0.1354
     74  NH2      -41.9970   19.2390  -40.4140 N.pl3 239  ARG239      0.1354
     75  N        -36.2470   25.5080  -38.9450 N.am  240  LEU240     -0.1980
     76  CA       -35.3040   26.1170  -38.0140 C.3   240  LEU240      0.1596
     77  C        -34.8020   27.4590  -38.5390 C.2   240  LEU240      0.2287
     78  O        -33.8280   28.0110  -38.0260 O.2   240  LEU240     -0.2864
     79  CB       -34.1170   25.1800  -37.7750 C.3   240  LEU240      0.0297
     80  CG       -34.4110   23.9020  -36.9840 C.3   240  LEU240      0.0022
     81  CD1      -33.1760   23.0210  -36.9530 C.3   240  LEU240      0.0001
     82  CD2      -34.8470   24.2630  -35.5700 C.3   240  LEU240      0.0001
     83  N        -36.2400   30.4020  -38.3320 N.3   242  LYS242     -0.1231
     84  CA       -36.4080   31.4840  -37.3670 C.3   242  LYS242      0.1693
     85  C        -35.2070   31.5350  -36.4310 C.2   242  LYS242      0.2592
     86  O        -34.7330   32.6160  -36.0800 O.2   242  LYS242     -0.2718
     87  CB       -37.7010   31.3030  -36.5670 C.3   242  LYS242      0.0285
     88  CG       -38.9860   31.5980  -37.3670 C.3   242  LYS242      0.0035
     89  CD       -39.1260   33.0970  -37.6830 C.3   242  LYS242      0.0206
     90  CE       -39.2840   33.4020  -39.1960 C.3   242  LYS242      0.1093
     91  NZ       -38.0040   33.4810  -40.0000 N.3   242  LYS242     -0.1314
     92  N        -34.7030   30.3670  -36.0390 N.am  243  TRP243     -0.1976
     93  CA       -33.5400   30.2960  -35.1660 C.3   243  TRP243      0.1640
     94  C        -32.3190   30.8230  -35.9230 C.2   243  TRP243      0.2290
     95  O        -31.5260   31.5900  -35.3800 O.2   243  TRP243     -0.2864
     96  CB       -33.2790   28.8540  -34.7260 C.3   243  TRP243      0.0576
     97  CG       -32.0060   28.7070  -33.9550 C.ar  243  TRP243      0.0006
     98  CD1      -31.7930   29.0240  -32.6380 C.ar  243  TRP243      0.0946
     99  CD2      -30.7490   28.2590  -34.4680 C.ar  243  TRP243      0.0152
    100  NE1      -30.4820   28.7990  -32.3050 N.ar  243  TRP243     -0.2442
    101  CE2      -29.8170   28.3320  -33.4100 C.ar  243  TRP243      0.0810
    102  CE3      -30.3180   27.8070  -35.7240 C.ar  243  TRP243      0.0012
    103  CZ2      -28.4760   27.9690  -33.5670 C.ar  243  TRP243      0.0191
    104  CZ3      -28.9860   27.4490  -35.8800 C.ar  243  TRP243      0.0001
    105  CH2      -28.0810   27.5320  -34.8080 C.ar  243  TRP243      0.0015
    106  N        -32.4310   34.5560  -36.0200 N.3   246  LYS246     -0.1245
    107  CA       -32.1030   35.1510  -34.7260 C.3   246  LYS246      0.1561
    108  C        -30.6060   35.1290  -34.4380 C.2   246  LYS246      0.2260
    109  O        -30.0390   36.1250  -33.9860 O.2   246  LYS246     -0.2867
    110  CB       -32.8520   34.4330  -33.6010 C.3   246  LYS246      0.0271
    111  CG       -34.3650   34.5820  -33.6650 C.3   246  LYS246      0.0035
    112  CD       -35.0710   34.0890  -32.3950 C.3   246  LYS246      0.0206
    113  CE       -34.9970   32.5730  -32.2000 C.3   246  LYS246      0.1093
    114  NZ       -33.6370   32.0690  -31.8390 N.3   246  LYS246     -0.1314
@<TRIPOS>BOND
     1    73    72    1
     2    64    65    1
     3    72    74    1
     4    72    71    2
     5    71    70    1
     6    91    90    1
     7    69    70    1
     8    69    68    1
     9    65    68    1
    10    65    66    1
    11    90    89    1
    12    75    66   am
    13    75    76    1
    14    51    50    2
    15    66    67    2
    16    77    78    2
    17    77    76    1
    18    83    84    1
    19    59    58    2
    20    58    57    1
    21    76    79    1
    22    79    80    1
    23    50    49    1
    24    50    56   am
    25    89    88    1
    26    88    87    1
    27    84    87    1
    28    84    85    1
    29    57    56    1
    30    57    60    1
    31    54    53   ar
    32    49    52    1
    33    49    48    1
    34    52    53    1
    35    80    81    1
    36    80    82    1
    37    53    55   ar
    38    85    86    2
    39    85    92   am
    40    60    61    1
    41    92    93    1
    42   106   107    1
    43    94    95    2
    44    94    93    1
    45   104   102   ar
    46   104   105   ar
    47    62    61    2
    48   102    99   ar
    49    61    63   am
    50    93    96    1
    51   105   103   ar
    52   107   108    1
    53   107   110    1
    54    96    97    1
    55    99    97   ar
    56    99   101   ar
    57   108   109    2
    58    39    38    1
    59    39    40    2
    60    97    98   ar
    61    38    37    1
    62    38    41    1
    63   111   110    1
    64   111   112    1
    65    37    31   am
    66   103   101   ar
    67   101   100   ar
    68    35    34   ar
    69     8    10   ar
    70     8     6   ar
    71    41    42    1
    72    98   100   ar
    73    31    30    1
    74    31    32    2
    75    30    29    1
    76    30    33    1
    77    42    43    1
    78   112   113    1
    79   113   114    1
    80    10     9   ar
    81    34    33    1
    82    34    36   ar
    83     5     6    1
    84     5     2    1
    85     6     7   ar
    86     1     2    1
    87    43    44    1
    88     2     3    1
    89    44    45    2
    90     9     7   ar
    91    45    47    1
    92    45    46    1
    93     3     4    2
    94     3    11   am
    95    17    11    1
    96    17    16    1
    97    11    12    1
    98    28    26    1
    99    21    20    2
   100    20    19    1
   101    16    15    1
   102    18    19    1
   103    18    13   am
   104    22    19    1
   105    22    23    1
   106    25    26    2
   107    25    24    1
   108    26    27    1
   109    12    13    1
   110    12    15    1
   111    13    14    2
   112    23    24    1
