@<TRIPOS>MOLECULE
tmp/3b9jC01.pdb
 132 125 0 0 0
SMALL
GASTEIGER

@<TRIPOS>ATOM
      1  N        -56.4470  -10.4960   23.3100 N.3   229  GLY229     -0.1225
      2  CA       -56.3430  -11.8820   23.7540 C.3   229  GLY229      0.1811
      3  C        -56.4560  -11.9710   25.2480 C.2   229  GLY229      0.2280
      4  O        -56.7930  -13.0330   25.7650 O.2   229  GLY229     -0.2866
      5  N        -59.8580  -12.9240   26.7250 N.3   232  GLU232     -0.1245
      6  CA       -60.3800  -14.1880   26.2380 C.3   232  GLU232      0.1567
      7  C        -60.7160  -15.1310   27.3940 C.2   232  GLU232      0.2260
      8  O        -61.6900  -15.8990   27.2900 O.2   232  GLU232     -0.2867
      9  CB       -59.3830  -14.8430   25.2680 C.3   232  GLU232      0.0388
     10  CG       -59.8090  -16.2090   24.7680 C.3   232  GLU232      0.1160
     11  CD       -58.8540  -16.8360   23.7760 C.2   232  GLU232      0.3649
     12  OE1      -59.0160  -18.0530   23.5980 O.co2 232  GLU232     -0.2457
     13  OE2      -57.9840  -16.1520   23.1530 O.co2 232  GLU232     -0.2457
     14  N        -54.5580  -21.2240   28.5840 N.3   303  LEU303     -0.1245
     15  CA       -54.5280  -21.5830   27.1440 C.3   303  LEU303      0.1561
     16  C        -53.1260  -22.0260   26.7250 C.2   303  LEU303      0.2260
     17  O        -52.8520  -22.1530   25.5290 O.2   303  LEU303     -0.2867
     18  CB       -55.0100  -20.4080   26.2700 C.3   303  LEU303      0.0270
     19  CG       -56.4700  -20.0310   26.5330 C.3   303  LEU303      0.0019
     20  CD1      -56.7690  -18.5470   26.2170 C.3   303  LEU303      0.0001
     21  CD2      -57.3400  -20.9760   25.7570 C.3   303  LEU303      0.0001
     22  N        -52.3270  -24.9550   24.1070 N.3   306  SER306     -0.1217
     23  CA       -52.8390  -24.5640   22.7830 C.3   306  SER306      0.1889
     24  C        -51.9440  -23.5080   22.1040 C.2   306  SER306      0.2288
     25  O        -51.8460  -23.4440   20.8810 O.2   306  SER306     -0.2866
     26  CB       -54.2730  -24.0080   23.0160 C.3   306  SER306      0.2089
     27  OG       -55.1030  -24.0600   21.8770 O.3   306  SER306     -0.2183
     28  N        -49.7910  -24.0460   18.5380 N.3   310  ARG310     -0.1245
     29  CA       -49.6920  -22.9910   17.4990 C.3   310  ARG310      0.1563
     30  C        -48.2230  -22.5810   17.2520 C.2   310  ARG310      0.2260
     31  O        -47.8360  -22.3080   16.0860 O.2   310  ARG310     -0.2867
     32  CB       -50.5690  -21.7900   17.8210 C.3   310  ARG310      0.0307
     33  CG       -50.4160  -20.6530   16.8360 C.3   310  ARG310      0.0489
     34  CD       -51.5060  -19.6310   16.9290 C.3   310  ARG310      0.2205
     35  NE       -52.8190  -20.1390   16.5130 N.pl3 310  ARG310     -0.0865
     36  CZ       -53.2410  -20.2170   15.2470 C.cat 310  ARG310      0.5346
     37  NH1      -52.4660  -19.8520   14.2430 N.pl3 310  ARG310      0.1354
     38  NH2      -54.4550  -20.6520   14.9850 N.pl3 310  ARG310      0.1354
     39  N        -53.6560  -16.0010   26.2060 N.3   340  ALA340     -0.1231
     40  CA       -53.7200  -15.5150   24.8460 C.3   340  ALA340      0.1694
     41  C        -53.2200  -14.0710   24.7720 C.2   340  ALA340      0.2592
     42  O        -53.3880  -13.2670   25.7280 O.2   340  ALA340     -0.2718
     43  CB       -55.1460  -15.6230   24.2830 C.3   340  ALA340      0.0304
     44  N        -52.5060  -13.8040   23.6740 N.am  341  PHE341     -0.1962
     45  CA       -52.0730  -12.4810   23.2930 C.3   341  PHE341      0.1771
     46  C        -51.9650  -12.5610   21.7810 C.2   341  PHE341      0.2619
     47  O        -51.3630  -13.4840   21.2100 O.2   341  PHE341     -0.2715
     48  CB       -50.7280  -12.1320   23.9200 C.3   341  PHE341      0.0574
     49  CG       -50.3990  -10.6170   23.9800 C.ar  341  PHE341     -0.0200
     50  CD1      -49.8850  -10.0640   25.1350 C.ar  341  PHE341     -0.0042
     51  CD2      -50.5700   -9.7640   22.8870 C.ar  341  PHE341     -0.0042
     52  CE1      -49.5690   -8.6850   25.1890 C.ar  341  PHE341     -0.0003
     53  CE2      -50.2620   -8.3660   22.9520 C.ar  341  PHE341     -0.0003
     54  CZ       -49.7690   -7.8510   24.0830 C.ar  341  PHE341     -0.0000
     55  N        -52.5430  -11.5790   21.1320 N.am  342  ARG342     -0.1963
     56  CA       -52.5830  -11.5180   19.6780 C.3   342  ARG342      0.1729
     57  C        -51.4170  -12.2560   18.9920 C.2   342  ARG342      0.2617
     58  O        -50.3340  -11.7460   18.9590 O.2   342  ARG342     -0.2715
     59  CB       -52.5690  -10.0400   19.3190 C.3   342  ARG342      0.0348
     60  CG       -52.8510   -9.6950   17.9220 C.3   342  ARG342      0.0492
     61  CD       -52.8600   -8.2050   17.8650 C.3   342  ARG342      0.2205
     62  NE       -53.3970   -7.6850   16.6280 N.pl3 342  ARG342     -0.0865
     63  CZ       -53.8080   -6.4240   16.4550 C.cat 342  ARG342      0.5346
     64  NH1      -53.7310   -5.5290   17.4220 N.pl3 342  ARG342      0.1354
     65  NH2      -54.2700   -6.0570   15.2760 N.pl3 342  ARG342      0.1354
     66  N        -51.6350  -13.4400   18.4410 N.am  343  GLY343     -0.1940
     67  CA       -50.5550  -14.2160   17.7940 C.3   343  GLY343      0.2014
     68  C        -50.5050  -15.6450   18.2910 C.2   343  GLY343      0.2638
     69  O        -50.3650  -16.5960   17.4810 O.2   343  GLY343     -0.2714
     70  N        -50.5720  -15.7810   19.6210 N.am  344  PHE344     -0.1973
     71  CA       -50.9200  -17.0350   20.2930 C.3   344  PHE344      0.1639
     72  C        -49.8680  -18.1280   20.0160 C.2   344  PHE344      0.2290
     73  O        -50.1790  -19.2650   19.6580 O.2   344  PHE344     -0.2864
     74  CB       -52.3610  -17.4270   19.8940 C.3   344  PHE344      0.0560
     75  CG       -53.0700  -18.3600   20.8540 C.ar  344  PHE344     -0.0200
     76  CD1      -53.6630  -17.8830   22.0140 C.ar  344  PHE344     -0.0042
     77  CD2      -53.2250  -19.7050   20.5530 C.ar  344  PHE344     -0.0042
     78  CE1      -54.3430  -18.7330   22.8550 C.ar  344  PHE344     -0.0003
     79  CE2      -53.9080  -20.5510   21.4120 C.ar  344  PHE344     -0.0003
     80  CZ       -54.4700  -20.0530   22.5440 C.ar  344  PHE344     -0.0000
     81  N        -59.0280  -21.8160   14.9160 N.3   439  PHE439     -0.1227
     82  CA       -58.6650  -22.2330   16.2590 C.3   439  PHE439      0.1736
     83  C        -57.9890  -23.5830   16.1230 C.2   439  PHE439      0.2596
     84  O        -58.4480  -24.4120   15.3320 O.2   439  PHE439     -0.2718
     85  CB       -59.8880  -22.4590   17.1490 C.3   439  PHE439      0.0547
     86  CG       -60.5860  -21.1990   17.6130 C.ar  439  PHE439     -0.0202
     87  CD1      -61.6140  -20.6540   16.8680 C.ar  439  PHE439     -0.0042
     88  CD2      -60.2560  -20.6060   18.8460 C.ar  439  PHE439     -0.0042
     89  CE1      -62.2660  -19.5300   17.2950 C.ar  439  PHE439     -0.0003
     90  CE2      -60.9130  -19.4850   19.2670 C.ar  439  PHE439     -0.0003
     91  CZ       -61.9260  -18.9540   18.4940 C.ar  439  PHE439     -0.0000
     92  N        -56.9610  -23.8370   16.9300 N.am  440  THR440     -0.1939
     93  CA       -56.3200  -25.1610   16.9870 C.3   440  THR440      0.2028
     94  C        -57.2100  -26.2610   17.6140 C.2   440  THR440      0.2642
     95  O        -57.0930  -27.4380   17.2490 O.2   440  THR440     -0.2714
     96  CB       -54.9630  -25.1330   17.7580 C.3   440  THR440      0.1808
     97  OG1      -55.2030  -24.8050   19.1400 O.3   440  THR440     -0.2208
     98  CG2      -53.9880  -24.1440   17.1380 C.3   440  THR440      0.0379
     99  N        -58.0550  -25.8990   18.5820 N.am  441  VAL441     -0.1977
    100  CA       -59.0590  -26.8430   19.0970 C.3   441  VAL441      0.1596
    101  C        -60.2580  -26.8110   18.1330 C.2   441  VAL441      0.2287
    102  O        -60.9600  -25.8150   18.1180 O.2   441  VAL441     -0.2864
    103  CB       -59.4890  -26.4840   20.5220 C.3   441  VAL441      0.0276
    104  CG1      -60.7800  -27.2020   20.8770 C.3   441  VAL441      0.0022
    105  CG2      -58.3780  -26.8720   21.4990 C.3   441  VAL441      0.0022
    106  N        -64.1130  -25.1520   18.4510 N.3   444  LEU444     -0.1245
    107  CA       -64.3140  -23.7250   18.5350 C.3   444  LEU444      0.1561
    108  C        -64.6510  -23.0490   17.2110 C.2   444  LEU444      0.2260
    109  O        -65.1410  -21.9170   17.2000 O.2   444  LEU444     -0.2867
    110  CB       -63.0670  -23.0650   19.1250 C.3   444  LEU444      0.0270
    111  CG       -62.8240  -23.3230   20.6110 C.3   444  LEU444      0.0019
    112  CD1      -61.4410  -22.7720   21.0300 C.3   444  LEU444      0.0001
    113  CD2      -63.9580  -22.7140   21.4430 C.3   444  LEU444      0.0001
    114  N        -61.7900  -14.6160   19.0680 N.3   508  ALA508     -0.1231
    115  CA       -60.3680  -14.9150   19.0330 C.3   508  ALA508      0.1694
    116  C        -59.9260  -15.5430   17.6910 C.2   508  ALA508      0.2591
    117  O        -60.7470  -15.7420   16.7870 O.2   508  ALA508     -0.2718
    118  CB       -60.0090  -15.8090   20.2140 C.3   508  ALA508      0.0304
    119  N        -58.6170  -15.8210   17.5880 N.am  509  ALA509     -0.1980
    120  CA       -57.9740  -16.6100   16.5090 C.3   509  ALA509      0.1597
    121  C        -58.1730  -16.0170   15.1460 C.2   509  ALA509      0.2287
    122  O        -58.0550  -16.7250   14.1430 O.2   509  ALA509     -0.2864
    123  CB       -58.4270  -18.0860   16.5300 C.3   509  ALA509      0.0319
    124  N        -54.2780  -11.1580   13.9530 N.3   691  GLU691     -0.1245
    125  CA       -52.9980  -11.5970   14.4570 C.3   691  GLU691      0.1567
    126  C        -51.8850  -11.7900   13.4040 C.2   691  GLU691      0.2260
    127  O        -50.6960  -11.6740   13.7560 O.2   691  GLU691     -0.2867
    128  CB       -53.1560  -12.9370   15.1760 C.3   691  GLU691      0.0388
    129  CG       -54.1330  -12.9940   16.3220 C.3   691  GLU691      0.1160
    130  CD       -54.4200  -14.4110   16.6880 C.2   691  GLU691      0.3649
    131  OE1      -55.2070  -15.0430   15.9700 O.co2 691  GLU691     -0.2457
    132  OE2      -53.8380  -14.9280   17.6540 O.co2 691  GLU691     -0.2457
@<TRIPOS>BOND
     1   126   127    2
     2   126   125    1
     3   124   125    1
     4   122   121    2
     5    37    36    1
     6   125   128    1
     7    81    82    1
     8    38    36    1
     9   121   120    1
    10   128   129    1
    11    36    35    2
    12    65    63    1
    13    84    83    2
    14   131   130   ar
    15    31    30    2
    16    83    82    1
    17    83    92   am
    18    82    85    1
    19   129   130    1
    20    63    62    2
    21    63    64    1
    22   120   123    1
    23   120   119    1
    24    35    34    1
    25    62    61    1
    26   130   132   ar
    27   117   116    2
    28    33    34    1
    29    33    32    1
    30    87    89   ar
    31    87    86   ar
    32    92    93    1
    33    93    94    1
    34    93    96    1
    35    98    96    1
    36    85    86    1
    37   109   108    2
    38   108   107    1
    39    95    94    2
    40    30    29    1
    41    89    91   ar
    42    69    68    2
    43    29    32    1
    44    29    28    1
    45   119   116   am
    46    86    88   ar
    47    94    99   am
    48   116   115    1
    49    96    97    1
    50    67    68    1
    51    67    66    1
    52    61    60    1
    53    60    59    1
    54   102   101    2
    55   101   100    1
    56    68    70   am
    57    66    57   am
    58   106   107    1
    59    91    90   ar
    60   107   110    1
    61    99   100    1
    62    88    90   ar
    63    58    57    2
    64    57    56    1
    65   115   114    1
    66   115   118    1
    67   100   103    1
    68   110   111    1
    69    59    56    1
    70    70    71    1
    71    73    72    2
    72    56    55    1
    73    74    71    1
    74    74    75    1
    75    72    71    1
    76   103   104    1
    77   103   105    1
    78    77    75   ar
    79    77    79   ar
    80   111   112    1
    81   111   113    1
    82    75    76   ar
    83    25    24    2
    84    55    46   am
    85    47    46    2
    86    79    80   ar
    87    46    45    1
    88    27    26    1
    89    76    78   ar
    90    24    23    1
    91    80    78   ar
    92    23    26    1
    93    23    22    1
    94    51    53   ar
    95    51    49   ar
    96    53    54   ar
    97    13    11   ar
    98    45    44    1
    99    45    48    1
   100     1     2    1
   101    12    11   ar
   102    44    41   am
   103     2     3    1
   104    11    10    1
   105    48    49    1
   106    49    50   ar
   107    54    52   ar
   108    43    40    1
   109    10     9    1
   110    41    40    1
   111    41    42    2
   112    40    39    1
   113    50    52   ar
   114     3     4    2
   115     9     6    1
   116    17    16    2
   117    21    19    1
   118    20    19    1
   119     6     5    1
   120     6     7    1
   121    18    19    1
   122    18    15    1
   123    16    15    1
   124    15    14    1
   125     8     7    2
