@<TRIPOS>MOLECULE
tmp/3b9jC00.pdb
 144 137 0 0 0
SMALL
GASTEIGER

@<TRIPOS>ATOM
      1  N        -64.0720  -11.0630   25.9470 N.3   197  GLN197     -0.1245
      2  CA       -64.0780  -11.6100   24.5890 C.3   197  GLN197      0.1566
      3  C        -64.7720  -12.9670   24.6440 C.2   197  GLN197      0.2260
      4  O        -65.0390  -13.5670   23.6220 O.2   197  GLN197     -0.2867
      5  CB       -62.6410  -11.8210   24.0710 C.3   197  GLN197      0.0367
      6  CG       -61.7260  -10.5860   23.9930 C.3   197  GLN197      0.0905
      7  CD       -60.2420  -10.9230   23.7880 C.2   197  GLN197      0.2608
      8  OE1      -59.3880  -10.4770   24.5550 O.2   197  GLN197     -0.2717
      9  NE2      -59.9330  -11.7200   22.7420 N.am  197  GLN197     -0.0878
     10  N        -60.2820   -2.6020   23.9160 N.3   226  GLY226     -0.1210
     11  CA       -59.1460   -3.4980   23.6710 C.3   226  GLY226      0.1956
     12  C        -59.2640   -4.8240   24.4090 C.2   226  GLY226      0.2612
     13  O        -59.7690   -4.8830   25.5340 O.2   226  GLY226     -0.2717
     14  N        -58.8070   -5.8960   23.7680 N.am  227  GLY227     -0.1942
     15  CA       -58.7370   -7.1900   24.4180 C.3   227  GLY227      0.2014
     16  C        -57.4210   -7.8350   24.1020 C.2   227  GLY227      0.2639
     17  O        -56.6850   -8.1890   25.0060 O.2   227  GLY227     -0.2714
     18  N        -57.1350   -7.9550   22.8010 N.am  228  PHE228     -0.1959
     19  CA       -55.8440   -8.4170   22.2440 C.3   228  PHE228      0.1771
     20  C        -55.4710   -9.7970   22.7440 C.2   228  PHE228      0.2620
     21  O        -54.3600  -10.2090   22.6010 O.2   228  PHE228     -0.2715
     22  CB       -54.6900   -7.4430   22.5160 C.3   228  PHE228      0.0574
     23  CG       -54.9630   -6.0340   22.1120 C.ar  228  PHE228     -0.0200
     24  CD1      -55.1540   -5.0490   23.0740 C.ar  228  PHE228     -0.0042
     25  CD2      -54.9690   -5.6750   20.7680 C.ar  228  PHE228     -0.0042
     26  CE1      -55.4010   -3.7570   22.7200 C.ar  228  PHE228     -0.0003
     27  CE2      -55.2060   -4.3540   20.3920 C.ar  228  PHE228     -0.0003
     28  CZ       -55.4370   -3.4050   21.3600 C.ar  228  PHE228     -0.0000
     29  N        -56.4470  -10.4960   23.3100 N.am  229  GLY229     -0.1954
     30  CA       -56.3430  -11.8820   23.7540 C.3   229  GLY229      0.1869
     31  C        -56.4560  -11.9710   25.2480 C.2   229  GLY229      0.2309
     32  O        -56.7930  -13.0330   25.7650 O.2   229  GLY229     -0.2863
     33  N        -52.5430  -11.5790   21.1320 N.3   342  ARG342     -0.1245
     34  CA       -52.5830  -11.5180   19.6780 C.3   342  ARG342      0.1563
     35  C        -51.4170  -12.2560   18.9920 C.2   342  ARG342      0.2260
     36  O        -50.3340  -11.7460   18.9590 O.2   342  ARG342     -0.2867
     37  CB       -52.5690  -10.0400   19.3190 C.3   342  ARG342      0.0307
     38  CG       -52.8510   -9.6950   17.9220 C.3   342  ARG342      0.0489
     39  CD       -52.8600   -8.2050   17.8650 C.3   342  ARG342      0.2205
     40  NE       -53.3970   -7.6850   16.6280 N.pl3 342  ARG342     -0.0865
     41  CZ       -53.8080   -6.4240   16.4550 C.cat 342  ARG342      0.5346
     42  NH1      -53.7310   -5.5290   17.4220 N.pl3 342  ARG342      0.1354
     43  NH2      -54.2700   -6.0570   15.2760 N.pl3 342  ARG342      0.1354
     44  N        -64.0480   -5.2590   20.1250 N.3   468  MET468     -0.1230
     45  CA       -62.9560   -4.7710   20.9770 C.3   468  MET468      0.1702
     46  C        -62.1170   -3.6850   20.2780 C.2   468  MET468      0.2593
     47  O        -61.0570   -3.2910   20.7650 O.2   468  MET468     -0.2718
     48  CB       -62.0760   -5.9310   21.4610 C.3   468  MET468      0.0401
     49  CG       -61.4630   -6.7500   20.3520 C.3   468  MET468      0.0596
     50  SD       -60.7670   -8.3330   20.8290 S.3   468  MET468     -0.1393
     51  CE       -62.1040   -9.4300   20.3700 C.3   468  MET468      0.0692
     52  N        -62.6410   -3.1690   19.1640 N.am  469  GLY469     -0.1942
     53  CA       -62.0000   -2.1630   18.3650 C.3   469  GLY469      0.2014
     54  C        -61.6450   -2.6130   16.9630 C.2   469  GLY469      0.2638
     55  O        -61.1000   -1.8230   16.2000 O.2   469  GLY469     -0.2714
     56  N        -61.9230   -3.8670   16.6070 N.am  470  GLN470     -0.1977
     57  CA       -61.4010   -4.4160   15.3720 C.3   470  GLN470      0.1601
     58  C        -62.3670   -4.2850   14.1790 C.2   470  GLN470      0.2287
     59  O        -62.0590   -4.7440   13.0740 O.2   470  GLN470     -0.2864
     60  CB       -60.9340   -5.8620   15.5960 C.3   470  GLN470      0.0394
     61  CG       -62.0220   -6.9780   15.4490 C.3   470  GLN470      0.0908
     62  CD       -62.8710   -7.2050   16.6750 C.2   470  GLN470      0.2608
     63  OE1      -63.2050   -6.2690   17.4030 O.2   470  GLN470     -0.2717
     64  NE2      -63.2450   -8.4570   16.8980 N.am  470  GLN470     -0.0878
     65  N        -65.4720   -5.6170   13.7680 N.3   472  LEU472     -0.1245
     66  CA       -66.3280   -6.7690   13.5370 C.3   472  LEU472      0.1561
     67  C        -67.8000   -6.3700   13.1970 C.2   472  LEU472      0.2260
     68  O        -68.3220   -6.6970   12.0870 O.2   472  LEU472     -0.2867
     69  CB       -66.2630   -7.7110   14.7690 C.3   472  LEU472      0.0270
     70  CG       -66.9890   -9.0660   14.6620 C.3   472  LEU472      0.0019
     71  CD1      -66.6780   -9.8080   13.3050 C.3   472  LEU472      0.0001
     72  CD2      -66.6700   -9.9310   15.8290 C.3   472  LEU472      0.0001
     73  N        -64.2060  -14.4330   20.9600 N.3   507  THR507     -0.1203
     74  CA       -63.8450  -13.6330   19.8250 C.3   507  THR507      0.1994
     75  C        -62.3240  -13.6650   19.8420 C.2   507  THR507      0.2618
     76  O        -61.6840  -12.9500   20.6100 O.2   507  THR507     -0.2717
     77  CB       -64.4510  -12.2480   19.9540 C.3   507  THR507      0.1784
     78  OG1      -65.8370  -12.4280   20.2650 O.3   507  THR507     -0.2211
     79  CG2      -64.2960  -11.4480   18.6700 C.3   507  THR507      0.0376
     80  N        -61.7900  -14.6160   19.0680 N.am  508  ALA508     -0.1965
     81  CA       -60.3680  -14.9150   19.0330 C.3   508  ALA508      0.1728
     82  C        -59.9260  -15.5430   17.6910 C.2   508  ALA508      0.2616
     83  O        -60.7470  -15.7420   16.7870 O.2   508  ALA508     -0.2715
     84  CB       -60.0090  -15.8090   20.2140 C.3   508  ALA508      0.0334
     85  N        -58.6170  -15.8210   17.5880 N.am  509  ALA509     -0.1963
     86  CA       -57.9740  -16.6100   16.5090 C.3   509  ALA509      0.1728
     87  C        -58.1730  -16.0170   15.1460 C.2   509  ALA509      0.2617
     88  O        -58.0550  -16.7250   14.1430 O.2   509  ALA509     -0.2715
     89  CB       -58.4270  -18.0860   16.5300 C.3   509  ALA509      0.0334
     90  N        -58.4970  -14.7260   15.1160 N.am  510  SER510     -0.1936
     91  CA       -58.6390  -13.9360   13.8950 C.3   510  SER510      0.2055
     92  C        -59.8120  -14.3250   13.0000 C.2   510  SER510      0.2643
     93  O        -59.9890  -13.7530   11.9360 O.2   510  SER510     -0.2714
     94  CB       -57.3310  -13.9680   13.0750 C.3   510  SER510      0.2130
     95  OG       -56.2790  -13.3310   13.7590 O.3   510  SER510     -0.2179
     96  N        -60.6230  -15.2840   13.4220 N.am  511  VAL511     -0.1963
     97  CA       -61.5920  -15.9270   12.5050 C.3   511  VAL511      0.1727
     98  C        -63.0210  -15.3800   12.6320 C.2   511  VAL511      0.2617
     99  O        -63.8930  -15.7190   11.8380 O.2   511  VAL511     -0.2715
    100  CB       -61.6320  -17.4520   12.6930 C.3   511  VAL511      0.0290
    101  CG1      -60.3320  -18.0730   12.2160 C.3   511  VAL511      0.0023
    102  CG2      -61.9150  -17.8000   14.1320 C.3   511  VAL511      0.0023
    103  N        -63.2420  -14.5190   13.6110 N.am  512  SER512     -0.1936
    104  CA       -64.5600  -13.9710   13.8930 C.3   512  SER512      0.2055
    105  C        -65.3110  -13.4840   12.6820 C.2   512  SER512      0.2643
    106  O        -66.4540  -13.8470   12.5070 O.2   512  SER512     -0.2714
    107  CB       -64.4280  -12.8520   14.9080 C.3   512  SER512      0.2130
    108  OG       -63.8910  -13.3990   16.0850 O.3   512  SER512     -0.2179
    109  N        -64.6610  -12.6710   11.8590 N.am  513  THR513     -0.1950
    110  CA       -65.2500  -12.1330   10.6260 C.3   513  THR513      0.1897
    111  C        -65.6390  -13.2210    9.6240 C.2   513  THR513      0.2313
    112  O        -66.6520  -13.1040    8.9070 O.2   513  THR513     -0.2863
    113  CB       -64.2750  -11.1760    9.9550 C.3   513  THR513      0.1794
    114  OG1      -63.9610  -10.1250   10.8660 O.3   513  THR513     -0.2208
    115  CG2      -64.8760  -10.5710    8.6930 C.3   513  THR513      0.0378
    116  N        -55.7770   -2.8350   10.9000 N.3   624  GLN624     -0.1245
    117  CA       -55.3380   -4.0370   11.5860 C.3   624  GLN624      0.1566
    118  C        -53.8920   -4.4030   11.2860 C.2   624  GLN624      0.2260
    119  O        -53.1590   -4.8220   12.1990 O.2   624  GLN624     -0.2867
    120  CB       -56.2560   -5.2010   11.2230 C.3   624  GLN624      0.0367
    121  CG       -57.6430   -5.0590   11.8250 C.3   624  GLN624      0.0905
    122  CD       -57.6390   -5.1910   13.3170 C.2   624  GLN624      0.2608
    123  OE1      -57.3050   -6.2370   13.8410 O.2   624  GLN624     -0.2717
    124  NE2      -58.0560   -4.1530   14.0060 N.am  624  GLN624     -0.0878
    125  N        -57.1460  -11.2360    9.3170 N.3   689  VAL689     -0.1231
    126  CA       -56.1270  -10.1590    9.2660 C.3   689  VAL689      0.1692
    127  C        -55.6190   -9.6860   10.6200 C.2   689  VAL689      0.2593
    128  O        -54.6550   -8.9260   10.6770 O.2   689  VAL689     -0.2718
    129  CB       -56.6800   -8.9280    8.4920 C.3   689  VAL689      0.0266
    130  CG1      -57.9460   -8.4060    9.1520 C.3   689  VAL689      0.0020
    131  CG2      -55.6450   -7.8410    8.4080 C.3   689  VAL689      0.0020
    132  N        -56.2150  -10.1670   11.7070 N.am  690  GLY690     -0.1942
    133  CA       -55.9330   -9.6580   13.0550 C.3   690  GLY690      0.2014
    134  C        -54.5710   -9.8950   13.6880 C.2   690  GLY690      0.2638
    135  O        -53.8420   -8.9510   13.9940 O.2   690  GLY690     -0.2714
    136  N        -54.2780  -11.1580   13.9530 N.am  691  GLU691     -0.1977
    137  CA       -52.9980  -11.5970   14.4570 C.3   691  GLU691      0.1602
    138  C        -51.8850  -11.7900   13.4040 C.2   691  GLU691      0.2287
    139  O        -50.6960  -11.6740   13.7560 O.2   691  GLU691     -0.2864
    140  CB       -53.1560  -12.9370   15.1760 C.3   691  GLU691      0.0415
    141  CG       -54.1330  -12.9940   16.3220 C.3   691  GLU691      0.1163
    142  CD       -54.4200  -14.4110   16.6880 C.2   691  GLU691      0.3649
    143  OE1      -55.2070  -15.0430   15.9700 O.co2 691  GLU691     -0.2457
    144  OE2      -53.8380  -14.9280   17.6540 O.co2 691  GLU691     -0.2457
@<TRIPOS>BOND
     1   131   129    1
     2   129   130    1
     3   129   126    1
     4   115   113    1
     5   112   111    2
     6   126   125    1
     7   126   127    1
     8   111   110    1
     9   113   110    1
    10   113   114    1
    11   127   128    2
    12   127   132   am
    13   110   109    1
    14   116   117    1
    15   120   117    1
    16   120   121    1
    17   118   117    1
    18   118   119    2
    19   132   133    1
    20   121   122    1
    21    99    98    2
    22   109   105   am
    23    93    92    2
    24    68    67    2
    25   101   100    1
    26    97    98    1
    27    97   100    1
    28    97    96    1
    29   106   105    2
    30    98   103   am
    31   105   104    1
    32   100   102    1
    33    92    96   am
    34    92    91    1
    35   133   134    1
    36    59    58    2
    37    94    95    1
    38    94    91    1
    39    67    66    1
    40    71    70    1
    41   122   123    2
    42   122   124   am
    43   138   139    2
    44   138   137    1
    45    66    65    1
    46    66    69    1
    47   103   104    1
    48   134   136   am
    49   134   135    2
    50   104   107    1
    51    91    90    1
    52   136   137    1
    53    88    87    2
    54    58    57    1
    55   137   140    1
    56    70    69    1
    57    70    72    1
    58   107   108    1
    59    90    87   am
    60    87    86    1
    61   140   141    1
    62    43    41    1
    63    57    60    1
    64    57    56    1
    65    61    60    1
    66    61    62    1
    67   143   142   ar
    68    55    54    2
    69   141   142    1
    70    41    40    2
    71    41    42    1
    72    86    89    1
    73    86    85    1
    74    56    54   am
    75    40    39    1
    76    62    64   am
    77    62    63    2
    78   142   144   ar
    79    83    82    2
    80    54    53    1
    81    85    82   am
    82    82    81    1
    83    39    38    1
    84    38    37    1
    85    53    52    1
    86    79    77    1
    87    36    35    2
    88    35    34    1
    89    81    80    1
    90    81    84    1
    91    80    75   am
    92    52    46   am
    93    37    34    1
    94    34    33    1
    95    74    75    1
    96    74    77    1
    97    74    73    1
    98    75    76    2
    99    77    78    1
   100    44    45    1
   101    46    47    2
   102    46    45    1
   103    49    50    1
   104    49    48    1
   105    51    50    1
   106    27    25   ar
   107    27    28   ar
   108    25    23   ar
   109    45    48    1
   110    28    26   ar
   111    23    22    1
   112    23    24   ar
   113    19    22    1
   114    19    20    1
   115    19    18    1
   116    21    20    2
   117    26    24   ar
   118     9     7   am
   119    20    29   am
   120    18    16   am
   121    29    30    1
   122     4     3    2
   123    11    10    1
   124    11    12    1
   125    30    31    1
   126    14    12   am
   127    14    15    1
   128     7     6    1
   129     7     8    2
   130     6     5    1
   131     5     2    1
   132    16    15    1
   133    16    17    2
   134    12    13    2
   135     2     3    1
   136     2     1    1
   137    31    32    2
