@<TRIPOS>MOLECULE
tmp/3b9lA08.pdb
 129 123 0 0 0
SMALL
GASTEIGER

@<TRIPOS>ATOM
      1  N         31.4270   -4.0610   38.3480 N.3   113  LEU113     -0.1245
      2  CA        32.0840   -2.8760   38.8640 C.3   113  LEU113      0.1561
      3  C         31.0050   -1.9970   39.4930 C.2   113  LEU113      0.2260
      4  O         30.0600   -1.5960   38.8180 O.2   113  LEU113     -0.2867
      5  CB        32.7610   -2.1590   37.7010 C.3   113  LEU113      0.0270
      6  CG        33.7660   -1.0460   37.9620 C.3   113  LEU113      0.0019
      7  CD1       34.7470   -1.4710   39.0550 C.3   113  LEU113      0.0001
      8  CD2       34.4920   -0.7490   36.6480 C.3   113  LEU113      0.0001
      9  N         40.1210    3.2720   37.0140 N.3   136  TYR136     -0.1241
     10  CA        38.8370    2.8970   36.4250 C.3   136  TYR136      0.1605
     11  C         38.9080    2.5610   34.9410 C.2   136  TYR136      0.2264
     12  O         38.1060    1.7790   34.4350 O.2   136  TYR136     -0.2867
     13  CB        37.7890    3.9880   36.6830 C.3   136  TYR136      0.0534
     14  CG        37.1080    3.8390   38.0320 C.ar  136  TYR136     -0.0201
     15  CD1       36.2260    2.7850   38.2750 C.ar  136  TYR136     -0.0009
     16  CD2       37.3890    4.7160   39.0850 C.ar  136  TYR136     -0.0009
     17  CE1       35.6470    2.6040   39.5290 C.ar  136  TYR136      0.0417
     18  CE2       36.8140    4.5400   40.3450 C.ar  136  TYR136      0.0417
     19  CZ        35.9460    3.4820   40.5560 C.ar  136  TYR136      0.1957
     20  OH        35.3860    3.2950   41.7950 O.3   136  TYR136     -0.2866
     21  N         37.4730   -0.8470   33.4130 N.3   140  ILE140     -0.1245
     22  CA        36.5670   -0.9840   32.2880 C.3   140  ILE140      0.1561
     23  C         37.2600   -1.8070   31.2000 C.2   140  ILE140      0.2260
     24  O         36.6670   -2.7120   30.6070 O.2   140  ILE140     -0.2867
     25  CB        36.2020    0.3800   31.6880 C.3   140  ILE140      0.0252
     26  CG1       35.7380    1.3220   32.7980 C.3   140  ILE140      0.0019
     27  CG2       35.0920    0.2190   30.6480 C.3   140  ILE140      0.0019
     28  CD1       34.5650    0.8120   33.5610 C.3   140  ILE140      0.0001
     29  N         37.4180   -5.6950   31.4990 N.3   143  ARG143     -0.1231
     30  CA        36.1130   -6.3310   31.4660 C.3   143  ARG143      0.1694
     31  C         35.5030   -6.2450   30.0650 C.2   143  ARG143      0.2592
     32  O         34.4600   -6.8410   29.8000 O.2   143  ARG143     -0.2718
     33  CB        35.1860   -5.6570   32.4870 C.3   143  ARG143      0.0321
     34  CG        35.5560   -5.8810   33.9720 C.3   143  ARG143      0.0489
     35  CD        34.7070   -4.9980   34.8850 C.3   143  ARG143      0.2205
     36  NE        34.6220   -5.4950   36.2530 N.pl3 143  ARG143     -0.0865
     37  CZ        35.6020   -5.4700   37.1610 C.cat 143  ARG143      0.5346
     38  NH1       36.7920   -4.9620   36.8820 N.pl3 143  ARG143      0.1354
     39  NH2       35.3890   -5.9670   38.3680 N.pl3 143  ARG143      0.1354
     40  N         36.1630   -5.4930   29.1830 N.am  144  HIS144     -0.1976
     41  CA        35.7220   -5.2950   27.8010 C.3   144  HIS144      0.1656
     42  C         36.9690   -5.3120   26.9110 C.2   144  HIS144      0.2291
     43  O         37.3870   -4.2870   26.3680 O.2   144  HIS144     -0.2864
     44  CB        34.9990   -3.9490   27.6490 C.3   144  HIS144      0.0771
     45  CG        33.7690   -3.8120   28.4950 C.ar  144  HIS144      0.0820
     46  ND1       33.7730   -3.1780   29.7170 N.ar  144  HIS144     -0.2267
     47  CD2       32.4890   -4.1940   28.2760 C.ar  144  HIS144      0.1154
     48  CE1       32.5480   -3.1670   30.2120 C.ar  144  HIS144      0.1986
     49  NE2       31.7490   -3.7770   29.3570 N.ar  144  HIS144     -0.2212
     50  N         36.5250   -3.6850   23.2460 N.3   147  PHE147     -0.1241
     51  CA        36.0810   -2.3180   23.0500 C.3   147  PHE147      0.1605
     52  C         37.2900   -1.5600   22.5030 C.2   147  PHE147      0.2264
     53  O         38.3060   -1.4280   23.1840 O.2   147  PHE147     -0.2867
     54  CB        35.6220   -1.7250   24.3790 C.3   147  PHE147      0.0534
     55  CG        34.7680   -0.4950   24.2390 C.ar  147  PHE147     -0.0203
     56  CD1       33.3940   -0.5590   24.4500 C.ar  147  PHE147     -0.0042
     57  CD2       35.3370    0.7360   23.9210 C.ar  147  PHE147     -0.0042
     58  CE1       32.6000    0.5790   24.3500 C.ar  147  PHE147     -0.0003
     59  CE2       34.5410    1.8820   23.8220 C.ar  147  PHE147     -0.0003
     60  CZ        33.1720    1.8010   24.0380 C.ar  147  PHE147     -0.0000
     61  N         37.5600    3.9590   23.9120 N.3   152  LEU152     -0.1245
     62  CA        37.4770    3.8710   25.3580 C.3   152  LEU152      0.1561
     63  C         38.1970    5.0940   25.9260 C.2   152  LEU152      0.2260
     64  O         37.7330    5.7350   26.8620 O.2   152  LEU152     -0.2867
     65  CB        38.1470    2.5980   25.8430 C.3   152  LEU152      0.0270
     66  CG        37.9400    2.3170   27.3290 C.3   152  LEU152      0.0019
     67  CD1       36.5030    1.8860   27.5510 C.3   152  LEU152      0.0001
     68  CD2       38.9060    1.2460   27.8020 C.3   152  LEU152      0.0001
     69  N         36.0600    7.9980   25.8970 N.3   155  PHE155     -0.1241
     70  CA        35.0440    7.9820   26.9570 C.3   155  PHE155      0.1605
     71  C         35.6260    8.4570   28.2890 C.2   155  PHE155      0.2264
     72  O         34.9710    9.1730   29.0420 O.2   155  PHE155     -0.2867
     73  CB        34.4610    6.5750   27.1320 C.3   155  PHE155      0.0534
     74  CG        33.2980    6.2950   26.2370 C.ar  155  PHE155     -0.0203
     75  CD1       32.0140    6.6270   26.6320 C.ar  155  PHE155     -0.0042
     76  CD2       33.4920    5.7500   24.9700 C.ar  155  PHE155     -0.0042
     77  CE1       30.9340    6.4220   25.7760 C.ar  155  PHE155     -0.0003
     78  CE2       32.4230    5.5410   24.1050 C.ar  155  PHE155     -0.0003
     79  CZ        31.1430    5.8780   24.5060 C.ar  155  PHE155     -0.0000
     80  N         34.3690   11.1750   31.1290 N.3   159  TYR159     -0.1241
     81  CA        34.1840   10.8760   32.5340 C.3   159  TYR159      0.1605
     82  C         34.9790   11.9120   33.3280 C.2   159  TYR159      0.2264
     83  O         34.4690   12.4750   34.2980 O.2   159  TYR159     -0.2867
     84  CB        34.6640    9.4590   32.8400 C.3   159  TYR159      0.0534
     85  CG        33.5710    8.4270   32.7320 C.ar  159  TYR159     -0.0201
     86  CD1       32.6040    8.3070   33.7260 C.ar  159  TYR159     -0.0009
     87  CD2       33.4970    7.5690   31.6300 C.ar  159  TYR159     -0.0009
     88  CE1       31.5860    7.3540   33.6310 C.ar  159  TYR159      0.0417
     89  CE2       32.4820    6.6170   31.5220 C.ar  159  TYR159      0.0417
     90  CZ        31.5320    6.5150   32.5250 C.ar  159  TYR159      0.1957
     91  OH        30.5200    5.5910   32.4190 O.3   159  TYR159     -0.2866
     92  N         26.7040    8.0810   30.2130 N.3   183  LEU183     -0.1231
     93  CA        27.9490    7.4920   29.7370 C.3   183  LEU183      0.1693
     94  C         27.8780    5.9660   29.7650 C.2   183  LEU183      0.2591
     95  O         28.3880    5.2890   28.8690 O.2   183  LEU183     -0.2718
     96  CB        29.1190    7.9920   30.5790 C.3   183  LEU183      0.0284
     97  CG        29.9610    9.1180   29.9770 C.3   183  LEU183      0.0019
     98  CD1       29.1940    9.8580   28.8940 C.3   183  LEU183      0.0001
     99  CD2       30.3840   10.0620   31.0960 C.3   183  LEU183      0.0001
    100  N         27.2460    5.4250   30.7980 N.am  184  ARG184     -0.1980
    101  CA        27.0920    3.9860   30.8950 C.3   184  ARG184      0.1597
    102  C         26.3170    3.5590   29.6430 C.2   184  ARG184      0.2287
    103  O         26.8340    2.8280   28.7980 O.2   184  ARG184     -0.2864
    104  CB        26.3200    3.6220   32.1660 C.3   184  ARG184      0.0334
    105  CG        26.1490    2.1320   32.3780 C.3   184  ARG184      0.0492
    106  CD        25.2620    1.8200   33.5820 C.3   184  ARG184      0.2205
    107  NE        23.9000    2.3300   33.4190 N.pl3 184  ARG184     -0.0865
    108  CZ        22.9470    2.2510   34.3480 C.cat 184  ARG184      0.5346
    109  NH1       23.1990    1.6800   35.5220 N.pl3 184  ARG184      0.1354
    110  NH2       21.7340    2.7380   34.1040 N.pl3 184  ARG184      0.1354
    111  N         28.0240    4.0680   26.5270 N.3   187  GLY187     -0.1210
    112  CA        29.1190    3.1150   26.4660 C.3   187  GLY187      0.1956
    113  C         28.6770    1.7180   26.0710 C.2   187  GLY187      0.2611
    114  O         29.4110    1.0040   25.4000 O.2   187  GLY187     -0.2717
    115  N         27.4810    1.3220   26.4890 N.am  188  LYS188     -0.1979
    116  CA        26.9520    0.0030   26.1420 C.3   188  LYS188      0.1596
    117  C         26.4930   -0.0300   24.6720 C.2   188  LYS188      0.2287
    118  O         26.6640   -1.0240   23.9620 O.2   188  LYS188     -0.2864
    119  CB        25.7720   -0.3590   27.0590 C.3   188  LYS188      0.0298
    120  CG        26.1210   -0.4420   28.5400 C.3   188  LYS188      0.0038
    121  CD        25.0090   -1.0930   29.3650 C.3   188  LYS188      0.0206
    122  CE        25.4880   -1.3320   30.8010 C.3   188  LYS188      0.1093
    123  NZ        24.5340   -2.0820   31.6700 N.3   188  LYS188     -0.1314
    124  N         29.5710   -0.4710   22.5900 N.3   191  SER191     -0.1217
    125  CA        30.0940   -1.8220   22.6310 C.3   191  SER191      0.1889
    126  C         29.2220   -2.6610   21.7190 C.2   191  SER191      0.2288
    127  O         29.7110   -3.3650   20.8410 O.2   191  SER191     -0.2866
    128  CB        30.0250   -2.3870   24.0420 C.3   191  SER191      0.2089
    129  OG        30.4760   -3.7360   24.0670 O.3   191  SER191     -0.2183
@<TRIPOS>BOND
     1   127   126    2
     2   126   125    1
     3    52    51    1
     4    52    53    2
     5   124   125    1
     6   125   128    1
     7    51    50    1
     8    51    54    1
     9    59    57   ar
    10    59    60   ar
    11    61    62    1
    12    57    55   ar
    13   118   117    2
    14    60    58   ar
    15   128   129    1
    16    78    79   ar
    17    78    76   ar
    18    55    54    1
    19    55    56   ar
    20    58    56   ar
    21    79    77   ar
    22   117   116    1
    23    76    74   ar
    24    62    65    1
    25    62    63    1
    26   114   113    2
    27    77    75   ar
    28    65    66    1
    29    69    70    1
    30    63    64    2
    31   113   112    1
    32   113   115   am
    33   116   115    1
    34   116   119    1
    35    74    75   ar
    36    74    73    1
    37    43    42    2
    38   112   111    1
    39    42    41    1
    40    70    73    1
    41    70    71    1
    42   119   120    1
    43    66    67    1
    44    66    68    1
    45    44    41    1
    46    44    45    1
    47    41    40    1
    48    47    45   ar
    49    47    49   ar
    50    71    72    2
    51    45    46   ar
    52   120   121    1
    53   103   102    2
    54    95    94    2
    55    98    97    1
    56    40    31   am
    57    49    48   ar
    58   121   122    1
    59   102   101    1
    60    46    48   ar
    61    93    94    1
    62    93    92    1
    63    93    96    1
    64    94   100   am
    65    32    31    2
    66    97    96    1
    67    97    99    1
    68    31    30    1
    69    24    23    2
    70    27    25    1
    71   100   101    1
    72   122   123    1
    73   101   104    1
    74    80    81    1
    75    23    22    1
    76    30    29    1
    77    30    33    1
    78    89    87   ar
    79    89    90   ar
    80    87    85   ar
    81    25    22    1
    82    25    26    1
    83   104   105    1
    84    22    21    1
    85   105   106    1
    86    91    90    1
    87    33    34    1
    88    90    88   ar
    89    81    84    1
    90    81    82    1
    91    85    84    1
    92    85    86   ar
    93    26    28    1
    94    82    83    2
    95   107   106    1
    96   107   108    2
    97    88    86   ar
    98    34    35    1
    99   110   108    1
   100   108   109    1
   101    12    11    2
   102    35    36    1
   103    11    10    1
   104    36    37    2
   105    10    13    1
   106    10     9    1
   107     8     6    1
   108    13    14    1
   109    38    37    1
   110    37    39    1
   111     5     6    1
   112     5     2    1
   113     6     7    1
   114    14    15   ar
   115    14    16   ar
   116    15    17   ar
   117     1     2    1
   118     4     3    2
   119     2     3    1
   120    16    18   ar
   121    17    19   ar
   122    18    19   ar
   123    19    20    1
