@<TRIPOS>MOLECULE
tmp/3b9lA07.pdb
 149 140 0 0 0
SMALL
GASTEIGER

@<TRIPOS>ATOM
      1  N         37.1830   -1.1090   21.2560 N.3   148  TYR148     -0.1241
      2  CA        38.2570   -0.3720   20.5880 C.3   148  TYR148      0.1605
      3  C         38.8960    0.6400   21.5490 C.2   148  TYR148      0.2264
      4  O         38.2220    1.5400   22.0460 O.2   148  TYR148     -0.2867
      5  CB        37.7040    0.3350   19.3410 C.3   148  TYR148      0.0534
      6  CG        38.7570    1.0230   18.5150 C.ar  148  TYR148     -0.0201
      7  CD1       39.8410    0.3150   18.0140 C.ar  148  TYR148     -0.0009
      8  CD2       38.6500    2.3860   18.2020 C.ar  148  TYR148     -0.0009
      9  CE1       40.7870    0.9380   17.2180 C.ar  148  TYR148      0.0417
     10  CE2       39.5840    3.0120   17.4110 C.ar  148  TYR148      0.0417
     11  CZ        40.6510    2.2820   16.9190 C.ar  148  TYR148      0.1957
     12  OH        41.5860    2.9000   16.1250 O.3   148  TYR148     -0.2866
     13  N         38.4610    4.5800   21.3640 N.3   151  GLU151     -0.1245
     14  CA        37.1280    4.9870   21.7500 C.3   151  GLU151      0.1567
     15  C         36.9740    4.9620   23.2660 C.2   151  GLU151      0.2260
     16  O         36.3280    5.8380   23.8460 O.2   151  GLU151     -0.2867
     17  CB        36.0640    4.1030   21.1010 C.3   151  GLU151      0.0388
     18  CG        34.6910    4.4790   21.6030 C.3   151  GLU151      0.1160
     19  CD        33.5690    3.7490   20.9140 C.2   151  GLU151      0.3649
     20  OE1       33.6640    2.5130   20.7610 O.co2 151  GLU151     -0.2457
     21  OE2       32.5790    4.4190   20.5420 O.co2 151  GLU151     -0.2457
     22  N         27.7360    1.6450   22.2970 N.3   190  SER190     -0.1217
     23  CA        28.9330    1.5960   21.4740 C.3   190  SER190      0.1889
     24  C         29.5170    0.1870   21.4370 C.2   190  SER190      0.2288
     25  O         29.9110   -0.3010   20.3790 O.2   190  SER190     -0.2866
     26  CB        29.9720    2.5730   21.9970 C.3   190  SER190      0.2089
     27  OG        31.1030    2.5590   21.1530 O.3   190  SER190     -0.2183
     28  N         27.2570   -1.7880   19.2390 N.3   193  LYS193     -0.1231
     29  CA        27.3660   -1.5060   17.8150 C.3   193  LYS193      0.1693
     30  C         28.5640   -2.1830   17.1710 C.2   193  LYS193      0.2591
     31  O         28.4230   -2.8120   16.1210 O.2   193  LYS193     -0.2718
     32  CB        27.4510   -0.0050   17.5390 C.3   193  LYS193      0.0285
     33  CG        26.1920    0.7620   17.8380 C.3   193  LYS193      0.0035
     34  CD        26.3190    2.2030   17.3710 C.3   193  LYS193      0.0206
     35  CE        25.2560    3.0880   18.0120 C.3   193  LYS193      0.1093
     36  NZ        25.2060    4.4300   17.3780 N.3   193  LYS193     -0.1314
     37  N         29.7420   -2.0740   17.7800 N.am  194  GLN194     -0.1979
     38  CA        30.9120   -2.6910   17.1620 C.3   194  GLN194      0.1601
     39  C         30.8770   -4.2100   17.0840 C.2   194  GLN194      0.2287
     40  O         31.4780   -4.7940   16.1850 O.2   194  GLN194     -0.2864
     41  CB        32.2280   -2.1890   17.7930 C.3   194  GLN194      0.0394
     42  CG        32.3080   -2.0890   19.2940 C.3   194  GLN194      0.0908
     43  CD        33.3370   -1.0330   19.7520 C.2   194  GLN194      0.2608
     44  OE1       33.0230    0.1560   19.8320 O.2   194  GLN194     -0.2717
     45  NE2       34.5670   -1.4700   20.0400 N.am  194  GLN194     -0.0878
     46  N         28.3590   -5.0960   14.0080 N.3   197  LYS197     -0.1245
     47  CA        28.9060   -4.9830   12.6610 C.3   197  LYS197      0.1561
     48  C         29.7830   -6.1790   12.3570 C.2   197  LYS197      0.2260
     49  O         29.6510   -6.8030   11.3140 O.2   197  LYS197     -0.2867
     50  CB        29.7060   -3.6940   12.5090 C.3   197  LYS197      0.0271
     51  CG        28.8770   -2.4470   12.7430 C.3   197  LYS197      0.0035
     52  CD        29.4500   -1.2190   12.0560 C.3   197  LYS197      0.0206
     53  CE        28.6610    0.0250   12.4410 C.3   197  LYS197      0.1093
     54  NZ        27.1910   -0.1430   12.2190 N.3   197  LYS197     -0.1314
     55  N         25.2200   -1.8290    2.4250 N.3   212  TRP212     -0.1241
     56  CA        24.9600   -1.0020    3.5940 C.3   212  TRP212      0.1605
     57  C         25.8330    0.2620    3.5990 C.2   212  TRP212      0.2264
     58  O         25.3400    1.3610    3.8400 O.2   212  TRP212     -0.2867
     59  CB        25.2160   -1.8210    4.8560 C.3   212  TRP212      0.0550
     60  CG        24.6480   -1.2110    6.0820 C.ar  212  TRP212      0.0003
     61  CD1       23.4040   -1.4260    6.6100 C.ar  212  TRP212      0.0946
     62  CD2       25.2680   -0.2190    6.9060 C.ar  212  TRP212      0.0152
     63  NE1       23.2110   -0.6200    7.7100 N.ar  212  TRP212     -0.2442
     64  CE2       24.3410    0.1300    7.9110 C.ar  212  TRP212      0.0810
     65  CE3       26.5180    0.4110    6.8900 C.ar  212  TRP212      0.0012
     66  CZ2       24.6270    1.0850    8.8920 C.ar  212  TRP212      0.0191
     67  CZ3       26.8010    1.3590    7.8650 C.ar  212  TRP212      0.0001
     68  CH2       25.8580    1.6880    8.8520 C.ar  212  TRP212      0.0015
     69  N         25.6910   10.7280    3.6610 N.3   220  ARG220     -0.1245
     70  CA        26.6390   11.6290    4.3000 C.3   220  ARG220      0.1563
     71  C         27.3820   12.5200    3.3380 C.2   220  ARG220      0.2260
     72  O         27.6500   13.6810    3.6470 O.2   220  ARG220     -0.2867
     73  CB        27.6570   10.8370    5.1270 C.3   220  ARG220      0.0307
     74  CG        27.4080   10.8660    6.6290 C.3   220  ARG220      0.0489
     75  CD        28.4440   10.0290    7.3690 C.3   220  ARG220      0.2205
     76  NE        28.2500   10.0660    8.8120 N.pl3 220  ARG220     -0.0865
     77  CZ        27.1190    9.7280    9.4160 C.cat 220  ARG220      0.5346
     78  NH1       26.0800    9.3270    8.6980 N.pl3 220  ARG220      0.1354
     79  NH2       27.0250    9.7920   10.7340 N.pl3 220  ARG220      0.1354
     80  N         36.5000    1.3040    3.2660 N.3   236  LEU236     -0.1245
     81  CA        35.7490    1.2110    4.5060 C.3   236  LEU236      0.1561
     82  C         35.5080   -0.2430    4.8620 C.2   236  LEU236      0.2260
     83  O         35.5160   -0.6170    6.0350 O.2   236  LEU236     -0.2867
     84  CB        34.4060    1.9350    4.3670 C.3   236  LEU236      0.0270
     85  CG        33.7730    2.6560    5.5740 C.3   236  LEU236      0.0019
     86  CD1       32.3030    2.2560    5.7010 C.3   236  LEU236      0.0001
     87  CD2       34.5280    2.3290    6.8610 C.3   236  LEU236      0.0001
     88  N         38.9010   -1.8530    6.2100 N.3   239  VAL239     -0.1231
     89  CA        39.1250   -1.2980    7.5360 C.3   239  VAL239      0.1692
     90  C         38.3740   -2.1260    8.5470 C.2   239  VAL239      0.2592
     91  O         38.9210   -2.5370    9.5690 O.2   239  VAL239     -0.2718
     92  CB        38.6120    0.1550    7.6480 C.3   239  VAL239      0.0266
     93  CG1       38.5370    0.5730    9.1190 C.3   239  VAL239      0.0020
     94  CG2       39.5230    1.0890    6.8740 C.3   239  VAL239      0.0020
     95  N         37.1160   -2.3920    8.2360 N.am  240  HIS240     -0.1976
     96  CA        36.2980   -3.1450    9.1460 C.3   240  HIS240      0.1656
     97  C         36.4920   -4.6570    9.1780 C.2   240  HIS240      0.2291
     98  O         36.0550   -5.3290   10.1100 O.2   240  HIS240     -0.2864
     99  CB        34.8420   -2.8190    8.9120 C.3   240  HIS240      0.0771
    100  CG        34.0840   -2.7140   10.1840 C.ar  240  HIS240      0.0820
    101  ND1       32.7100   -2.6750   10.2410 N.ar  240  HIS240     -0.2267
    102  CD2       34.5210   -2.6880   11.4650 C.ar  240  HIS240      0.1154
    103  CE1       32.3310   -2.6380   11.5080 C.ar  240  HIS240      0.1986
    104  NE2       33.4110   -2.6460   12.2700 N.ar  240  HIS240     -0.2212
    105  N         39.7730   -4.6870   11.2580 N.3   243  CYS243     -0.1235
    106  CA        39.3970   -4.3030   12.6090 C.3   243  CYS243      0.1677
    107  C         38.6390   -5.4100   13.2830 C.2   243  CYS243      0.2270
    108  O         38.8700   -5.6780   14.4620 O.2   243  CYS243     -0.2867
    109  CB        38.5540   -3.0250   12.6330 C.3   243  CYS243      0.0956
    110  SG        39.5380   -1.5020   12.4940 S.3   243  CYS243     -0.0801
    111  N         44.1330   -2.3360   13.1280 N.3   251  CYS251     -0.1235
    112  CA        42.8580   -1.6170   13.0830 C.3   251  CYS251      0.1677
    113  C         43.0420   -0.1000   13.1080 C.2   251  CYS251      0.2270
    114  O         42.3590    0.6240   12.3910 O.2   251  CYS251     -0.2867
    115  CB        41.9580   -2.0530   14.2540 C.3   251  CYS251      0.0956
    116  SG        40.3290   -1.2270   14.3510 S.3   251  CYS251     -0.0801
    117  N         42.2250    2.8110    9.9900 N.3   255  ARG255     -0.1245
    118  CA        41.3520    3.9470   10.2260 C.3   255  ARG255      0.1563
    119  C         42.1070    5.2460    9.9990 C.2   255  ARG255      0.2260
    120  O         41.5430    6.2320    9.5280 O.2   255  ARG255     -0.2867
    121  CB        40.8160    3.9500   11.6580 C.3   255  ARG255      0.0307
    122  CG        39.7800    2.9060   11.9570 C.3   255  ARG255      0.0489
    123  CD        39.2570    3.0430   13.3780 C.3   255  ARG255      0.2205
    124  NE        38.8190    4.4020   13.6980 N.pl3 255  ARG255     -0.0865
    125  CZ        37.5810    4.7000   14.0720 C.cat 255  ARG255      0.5346
    126  NH1       36.6890    3.7320   14.1560 N.pl3 255  ARG255      0.1354
    127  NH2       37.2330    5.9390   14.3870 N.pl3 255  ARG255      0.1354
    128  N         33.8150   10.1680   11.5910 N.3   289  ALA289     -0.1231
    129  CA        32.7500    9.1880   11.7170 C.3   289  ALA289      0.1694
    130  C         31.4430    9.7740   12.2130 C.2   289  ALA289      0.2591
    131  O         30.3840    9.1670   12.0480 O.2   289  ALA289     -0.2718
    132  CB        33.1970    8.0370   12.6380 C.3   289  ALA289      0.0304
    133  N         31.5080   10.9530   12.8120 N.am  290  GLU290     -0.1979
    134  CA        30.3010   11.5730   13.3470 C.3   290  GLU290      0.1602
    135  C         29.9610   12.8630   12.6300 C.2   290  GLU290      0.2287
    136  O         29.1600   13.6580   13.1210 O.2   290  GLU290     -0.2864
    137  CB        30.4770   11.8920   14.8330 C.3   290  GLU290      0.0415
    138  CG        30.9150   10.7290   15.7070 C.3   290  GLU290      0.1163
    139  CD        30.8180   11.0650   17.1860 C.2   290  GLU290      0.3649
    140  OE1       29.6830   11.1590   17.7030 O.co2 290  GLU290     -0.2457
    141  OE2       31.8730   11.2500   17.8290 O.co2 290  GLU290     -0.2457
    142  N         19.3930    3.2300   14.1930 N.3   449  ASP449     -0.1239
    143  CA        20.6530    3.0260   14.8930 C.3   449  ASP449      0.1674
    144  C         20.4630    2.4850   16.2990 C.2   449  ASP449      0.2266
    145  O         21.2120    1.6080   16.7300 O.2   449  ASP449     -0.2867
    146  CB        21.4550    4.3220   14.9470 C.3   449  ASP449      0.1410
    147  CG        22.8310    4.1190   15.5460 C.2   449  ASP449      0.3668
    148  OD1       22.9100    3.6660   16.7070 O.co2 449  ASP449     -0.2456
    149  OD2       23.8340    4.4060   14.8600 O.co2 449  ASP449     -0.2456
@<TRIPOS>BOND
     1    55    56    1
     2    80    81    1
     3    71    72    2
     4    71    70    1
     5    56    57    1
     6    56    59    1
     7    57    58    2
     8    69    70    1
     9    70    73    1
    10    84    81    1
    11    84    85    1
    12    81    82    1
    13    59    60    1
    14    82    83    2
    15    73    74    1
    16    85    86    1
    17    85    87    1
    18    60    61   ar
    19    60    62   ar
    20    88    89    1
    21    61    63   ar
    22    74    75    1
    23    94    92    1
    24    65    62   ar
    25    65    67   ar
    26    62    64   ar
    27    75    76    1
    28    89    92    1
    29    89    90    1
    30    92    93    1
    31    63    64   ar
    32    67    68   ar
    33    64    66   ar
    34    95    90   am
    35    95    96    1
    36    90    91    2
    37    78    77    1
    38    76    77    2
    39    68    66   ar
    40    99    96    1
    41    99   100    1
    42    96    97    1
    43    97    98    2
    44    77    79    1
    45   120   119    2
    46   117   118    1
    47   119   118    1
    48   100   101   ar
    49   100   102   ar
    50   118   121    1
    51   101   103   ar
    52   105   106    1
    53    49    48    2
    54   102   104   ar
    55   103   104   ar
    56   128   129    1
    57   121   122    1
    58   129   130    1
    59   129   132    1
    60   122   123    1
    61   131   130    2
    62    52    53    1
    63    52    51    1
    64   130   133   am
    65    54    53    1
    66    48    47    1
    67   114   113    2
    68   110   109    1
    69   110   116    1
    70    50    47    1
    71    50    51    1
    72   106   109    1
    73   106   107    1
    74   135   136    2
    75   135   134    1
    76    47    46    1
    77   133   134    1
    78   112   113    1
    79   112   111    1
    80   112   115    1
    81   107   108    2
    82   134   137    1
    83   123   124    1
    84   124   125    2
    85   125   126    1
    86   125   127    1
    87   142   143    1
    88   115   116    1
    89   137   138    1
    90   149   147   ar
    91   143   146    1
    92   143   144    1
    93   146   147    1
    94   147   148   ar
    95   138   139    1
    96    31    30    2
    97    12    11    1
    98    40    39    2
    99   144   145    2
   100    11     9   ar
   101    11    10   ar
   102    39    38    1
   103    38    37    1
   104    38    41    1
   105    30    37   am
   106    30    29    1
   107   139   140   ar
   108   139   141   ar
   109     9     7   ar
   110    34    33    1
   111    34    35    1
   112    36    35    1
   113    10     8   ar
   114    32    29    1
   115    32    33    1
   116    41    42    1
   117    29    28    1
   118     7     6   ar
   119     8     6   ar
   120     6     5    1
   121    42    43    1
   122     5     2    1
   123    43    44    2
   124    43    45   am
   125    25    24    2
   126    21    19   ar
   127     2     1    1
   128     2     3    1
   129    20    19   ar
   130    19    18    1
   131    17    18    1
   132    17    14    1
   133    27    26    1
   134    13    14    1
   135    24    23    1
   136    23    26    1
   137    23    22    1
   138     3     4    2
   139    14    15    1
   140    15    16    2
