@<TRIPOS>MOLECULE
tmp/3b9mA08.pdb
 92 88 0 0 0
SMALL
GASTEIGER

@<TRIPOS>ATOM
      1  N         36.7210   -0.8160   32.7830 N.3   140  ILE140     -0.1245
      2  CA        35.8180   -0.9510   31.6460 C.3   140  ILE140      0.1561
      3  C         36.4660   -1.8740   30.6170 C.2   140  ILE140      0.2260
      4  O         35.8620   -2.8530   30.1820 O.2   140  ILE140     -0.2867
      5  CB        35.5140    0.3990   30.9610 C.3   140  ILE140      0.0252
      6  CG1       35.2270    1.4890   32.0090 C.3   140  ILE140      0.0019
      7  CG2       34.3150    0.2410   30.0410 C.3   140  ILE140      0.0019
      8  CD1       34.0480    1.2310   32.9230 C.3   140  ILE140      0.0001
      9  N         35.1390   -5.3420   28.6560 N.3   144  HIS144     -0.1241
     10  CA        34.7970   -5.2030   27.2460 C.3   144  HIS144      0.1621
     11  C         36.1230   -5.2520   26.4650 C.2   144  HIS144      0.2264
     12  O         36.5980   -4.2520   25.9340 O.2   144  HIS144     -0.2867
     13  CB        34.0780   -3.8730   27.0150 C.3   144  HIS144      0.0745
     14  CG        32.7620   -3.7530   27.7280 C.ar  144  HIS144      0.0817
     15  ND1       32.6280   -3.9290   29.0890 N.ar  144  HIS144     -0.2268
     16  CD2       31.5280   -3.4230   27.2730 C.ar  144  HIS144      0.1154
     17  CE1       31.3720   -3.7100   29.4420 C.ar  144  HIS144      0.1986
     18  NE2       30.6830   -3.4010   28.3580 N.ar  144  HIS144     -0.2212
     19  N         35.9680   -3.9000   22.7240 N.3   147  PHE147     -0.1241
     20  CA        35.5450   -2.5170   22.5370 C.3   147  PHE147      0.1605
     21  C         36.7130   -1.7460   21.9520 C.2   147  PHE147      0.2264
     22  O         37.7970   -1.7600   22.5180 O.2   147  PHE147     -0.2867
     23  CB        35.1730   -1.9300   23.8930 C.3   147  PHE147      0.0534
     24  CG        34.4190   -0.6320   23.8230 C.ar  147  PHE147     -0.0203
     25  CD1       33.0340   -0.6180   23.9130 C.ar  147  PHE147     -0.0042
     26  CD2       35.0970    0.5760   23.7320 C.ar  147  PHE147     -0.0042
     27  CE1       32.3320    0.5790   23.9210 C.ar  147  PHE147     -0.0003
     28  CE2       34.4020    1.7890   23.7400 C.ar  147  PHE147     -0.0003
     29  CZ        33.0160    1.7930   23.8370 C.ar  147  PHE147     -0.0000
     30  N         36.9230    4.1030   23.5890 N.3   152  LEU152     -0.1245
     31  CA        36.7860    3.9040   25.0250 C.3   152  LEU152      0.1561
     32  C         37.4130    5.1020   25.7170 C.2   152  LEU152      0.2260
     33  O         36.9820    5.5240   26.7870 O.2   152  LEU152     -0.2867
     34  CB        37.5030    2.6380   25.4510 C.3   152  LEU152      0.0270
     35  CG        37.2100    2.2730   26.8940 C.3   152  LEU152      0.0019
     36  CD1       35.8130    1.6990   26.9940 C.3   152  LEU152      0.0001
     37  CD2       38.2540    1.2980   27.3950 C.3   152  LEU152      0.0001
     38  N         35.0570    8.1120   25.8180 N.3   155  PHE155     -0.1241
     39  CA        34.0690    7.9960   26.8880 C.3   155  PHE155      0.1605
     40  C         34.7480    8.3880   28.1870 C.2   155  PHE155      0.2264
     41  O         34.1370    9.0100   29.0430 O.2   155  PHE155     -0.2867
     42  CB        33.5560    6.5540   26.9800 C.3   155  PHE155      0.0534
     43  CG        32.5250    6.2230   25.9520 C.ar  155  PHE155     -0.0203
     44  CD1       31.1790    6.4780   26.1970 C.ar  155  PHE155     -0.0042
     45  CD2       32.8990    5.7320   24.7100 C.ar  155  PHE155     -0.0042
     46  CE1       30.2170    6.2470   25.2090 C.ar  155  PHE155     -0.0003
     47  CE2       31.9410    5.5030   23.7230 C.ar  155  PHE155     -0.0003
     48  CZ        30.6020    5.7600   23.9740 C.ar  155  PHE155     -0.0000
     49  N         33.5360   11.0360   30.6720 N.3   159  TYR159     -0.1241
     50  CA        33.2970   10.7160   32.0760 C.3   159  TYR159      0.1605
     51  C         34.0250   11.7330   32.9490 C.2   159  TYR159      0.2264
     52  O         33.5020   12.1950   33.9590 O.2   159  TYR159     -0.2867
     53  CB        33.7950    9.3040   32.3930 C.3   159  TYR159      0.0534
     54  CG        32.6950    8.2640   32.4230 C.ar  159  TYR159     -0.0201
     55  CD1       31.7500    8.2590   33.4480 C.ar  159  TYR159     -0.0009
     56  CD2       32.5940    7.2900   31.4240 C.ar  159  TYR159     -0.0009
     57  CE1       30.7260    7.3070   33.4740 C.ar  159  TYR159      0.0417
     58  CE2       31.5660    6.3310   31.4380 C.ar  159  TYR159      0.0417
     59  CZ        30.6420    6.3450   32.4670 C.ar  159  TYR159      0.1957
     60  OH        29.6400    5.4100   32.5020 O.3   159  TYR159     -0.2866
     61  N         25.9470    8.2570   29.9130 N.3   183  LEU183     -0.1231
     62  CA        27.2260    7.7480   29.4570 C.3   183  LEU183      0.1693
     63  C         27.2460    6.2190   29.4790 C.2   183  LEU183      0.2591
     64  O         27.8140    5.5860   28.5910 O.2   183  LEU183     -0.2718
     65  CB        28.3240    8.2850   30.3470 C.3   183  LEU183      0.0284
     66  CG        29.5310    8.8190   29.6120 C.3   183  LEU183      0.0019
     67  CD1       29.1210    9.5050   28.3230 C.3   183  LEU183      0.0001
     68  CD2       30.2330    9.7790   30.5380 C.3   183  LEU183      0.0001
     69  N         26.6420    5.6230   30.5010 N.am  184  ARG184     -0.1980
     70  CA        26.6090    4.1740   30.5700 C.3   184  ARG184      0.1597
     71  C         25.8130    3.6650   29.3770 C.2   184  ARG184      0.2287
     72  O         26.3790    3.0760   28.4640 O.2   184  ARG184     -0.2864
     73  CB        25.9450    3.6990   31.8560 C.3   184  ARG184      0.0334
     74  CG        26.0330    2.2020   32.0740 C.3   184  ARG184      0.0492
     75  CD        25.0890    1.7870   33.1730 C.3   184  ARG184      0.2205
     76  NE        23.7030    2.0820   32.8130 N.pl3 184  ARG184     -0.0865
     77  CZ        22.8220    2.6710   33.6170 C.cat 184  ARG184      0.5346
     78  NH1       23.1770    3.0330   34.8440 N.pl3 184  ARG184      0.1354
     79  NH2       21.5840    2.9030   33.1910 N.pl3 184  ARG184      0.1354
     80  N         27.4030    3.9180   26.1990 N.3   187  GLY187     -0.1210
     81  CA        28.5420    3.0480   25.9530 C.3   187  GLY187      0.1956
     82  C         28.1260    1.5920   25.7880 C.2   187  GLY187      0.2611
     83  O         28.8170    0.7870   25.1580 O.2   187  GLY187     -0.2717
     84  N         26.9950    1.2490   26.3870 N.am  188  LYS188     -0.1979
     85  CA        26.4750   -0.0940   26.2840 C.3   188  LYS188      0.1596
     86  C         25.9450   -0.2550   24.8570 C.2   188  LYS188      0.2287
     87  O         26.0020   -1.3440   24.2650 O.2   188  LYS188     -0.2864
     88  CB        25.3530   -0.2990   27.3010 C.3   188  LYS188      0.0298
     89  CG        25.8180   -0.4210   28.7470 C.3   188  LYS188      0.0038
     90  CD        25.2080   -1.6580   29.4010 C.3   188  LYS188      0.0206
     91  CE        23.6760   -1.6620   29.2620 C.3   188  LYS188      0.1093
     92  NZ        23.0250   -2.9280   29.7350 N.3   188  LYS188     -0.1314
@<TRIPOS>BOND
     1    21    22    2
     2    21    20    1
     3    20    19    1
     4    20    23    1
     5    30    31    1
     6    47    48   ar
     7    47    45   ar
     8    26    28   ar
     9    26    24   ar
    10    28    29   ar
    11    24    23    1
    12    24    25   ar
    13    29    27   ar
    14    25    27   ar
    15    48    46   ar
    16    87    86    2
    17    45    43   ar
    18    86    85    1
    19    31    34    1
    20    31    32    1
    21    83    82    2
    22    46    44   ar
    23    34    35    1
    24    32    33    2
    25    82    81    1
    26    82    84   am
    27    38    39    1
    28    12    11    2
    29    43    44   ar
    30    43    42    1
    31    81    80    1
    32    85    84    1
    33    85    88    1
    34    11    10    1
    35    39    42    1
    36    39    40    1
    37    35    36    1
    38    35    37    1
    39    13    10    1
    40    13    14    1
    41    10     9    1
    42    16    14   ar
    43    16    18   ar
    44    88    89    1
    45    14    15   ar
    46    40    41    2
    47    67    66    1
    48    18    17   ar
    49    72    71    2
    50    64    63    2
    51    89    90    1
    52    15    17   ar
    53    91    90    1
    54    91    92    1
    55    71    70    1
    56    62    63    1
    57    62    61    1
    58    62    65    1
    59    63    69   am
    60    66    65    1
    61    66    68    1
    62     7     5    1
    63     4     3    2
    64    69    70    1
    65    70    73    1
    66     3     2    1
    67    49    50    1
    68     5     2    1
    69     5     6    1
    70    56    58   ar
    71    56    54   ar
    72    58    59   ar
    73     2     1    1
    74    73    74    1
    75     6     8    1
    76    74    75    1
    77    50    53    1
    78    50    51    1
    79    53    54    1
    80    54    55   ar
    81    59    60    1
    82    59    57   ar
    83    76    75    1
    84    76    77    2
    85    51    52    2
    86    79    77    1
    87    55    57   ar
    88    77    78    1
