@<TRIPOS>MOLECULE
tmp/3b9mA07.pdb
 126 118 0 0 0
SMALL
GASTEIGER

@<TRIPOS>ATOM
      1  N         27.8730   -5.1990   13.9730 N.3   197  LYS197     -0.1245
      2  CA        28.4230   -4.9890   12.6350 C.3   197  LYS197      0.1561
      3  C         29.2660   -6.1810   12.1840 C.2   197  LYS197      0.2260
      4  O         29.2080   -6.5920   11.0230 O.2   197  LYS197     -0.2867
      5  CB        29.2610   -3.7160   12.5970 C.3   197  LYS197      0.0271
      6  CG        28.4220   -2.4710   12.7430 C.3   197  LYS197      0.0035
      7  CD        29.2430   -1.2280   12.4960 C.3   197  LYS197      0.0206
      8  CE        28.3800   -0.0830   11.9870 C.3   197  LYS197      0.1093
      9  NZ        29.2090    1.1290   11.6940 N.3   197  LYS197     -0.1314
     10  N         24.0680    4.2490    3.4740 N.3   216  ARG216     -0.1231
     11  CA        24.3730    5.1320    4.5810 C.3   216  ARG216      0.1694
     12  C         25.3670    6.2080    4.1590 C.2   216  ARG216      0.2591
     13  O         25.3590    7.3150    4.6930 O.2   216  ARG216     -0.2718
     14  CB        24.9170    4.3160    5.7580 C.3   216  ARG216      0.0321
     15  CG        25.2130    5.1350    7.0080 C.3   216  ARG216      0.0489
     16  CD        25.1130    4.2770    8.2680 C.3   216  ARG216      0.2205
     17  NE        25.8940    4.8070    9.3890 N.pl3 216  ARG216     -0.0865
     18  CZ        25.8040    4.3720   10.6450 C.cat 216  ARG216      0.5346
     19  NH1       24.9570    3.3960   10.9610 N.pl3 216  ARG216      0.1354
     20  NH2       26.5690    4.9120   11.5880 N.pl3 216  ARG216      0.1354
     21  N         26.2140    5.8860    3.1890 N.am  217  LEU217     -0.1980
     22  CA        27.2120    6.8300    2.7260 C.3   217  LEU217      0.1596
     23  C         26.7440    7.8890    1.7240 C.2   217  LEU217      0.2287
     24  O         27.1730    9.0430    1.7860 O.2   217  LEU217     -0.2864
     25  CB        28.4070    6.0750    2.1470 C.3   217  LEU217      0.0297
     26  CG        29.4860    5.7400    3.1780 C.3   217  LEU217      0.0022
     27  CD1       30.8120    5.5870    2.4760 C.3   217  LEU217      0.0001
     28  CD2       29.5930    6.8590    4.2100 C.3   217  LEU217      0.0001
     29  N         24.7260   10.1770    3.5530 N.3   220  ARG220     -0.1231
     30  CA        25.5830   11.0620    4.3300 C.3   220  ARG220      0.1694
     31  C         26.2350   12.1000    3.4070 C.2   220  ARG220      0.2592
     32  O         26.1340   13.3030    3.6410 O.2   220  ARG220     -0.2718
     33  CB        26.6680   10.2240    5.0020 C.3   220  ARG220      0.0321
     34  CG        26.9490   10.5340    6.4620 C.3   220  ARG220      0.0489
     35  CD        27.9500    9.5210    7.0460 C.3   220  ARG220      0.2205
     36  NE        27.9240    9.4850    8.5040 N.pl3 220  ARG220     -0.0865
     37  CZ        26.8500    9.1720    9.2270 C.cat 220  ARG220      0.5346
     38  NH1       25.6960    8.8570    8.6390 N.pl3 220  ARG220      0.1354
     39  NH2       26.9240    9.1890   10.5490 N.pl3 220  ARG220      0.1354
     40  N         26.9330   11.6190    2.3810 N.am  221  PHE221     -0.1976
     41  CA        27.5810   12.4840    1.3980 C.3   221  PHE221      0.1639
     42  C         26.7690   12.3450    0.1100 C.2   221  PHE221      0.2290
     43  O         27.1220   11.5600   -0.7760 O.2   221  PHE221     -0.2864
     44  CB        29.0190   12.0390    1.1070 C.3   221  PHE221      0.0560
     45  CG        29.8260   11.7290    2.3360 C.ar  221  PHE221     -0.0200
     46  CD1       29.9640   12.6680    3.3490 C.ar  221  PHE221     -0.0042
     47  CD2       30.4510   10.4820    2.4740 C.ar  221  PHE221     -0.0042
     48  CE1       30.7140   12.3840    4.4750 C.ar  221  PHE221     -0.0003
     49  CE2       31.2030   10.1820    3.5930 C.ar  221  PHE221     -0.0003
     50  CZ        31.3360   11.1410    4.6040 C.ar  221  PHE221     -0.0000
     51  N         35.9560    1.1920    3.0160 N.3   236  LEU236     -0.1245
     52  CA        35.2580    1.0120    4.2710 C.3   236  LEU236      0.1561
     53  C         35.1080   -0.4660    4.5790 C.2   236  LEU236      0.2260
     54  O         35.3390   -0.8950    5.7020 O.2   236  LEU236     -0.2867
     55  CB        33.8780    1.6660    4.1910 C.3   236  LEU236      0.0270
     56  CG        33.1620    2.2100    5.4460 C.3   236  LEU236      0.0019
     57  CD1       31.9870    1.3320    5.8440 C.3   236  LEU236      0.0001
     58  CD2       34.1750    2.3640    6.5870 C.3   236  LEU236      0.0001
     59  N         38.1180   -1.9800    6.0330 N.3   239  VAL239     -0.1231
     60  CA        38.1760   -1.5390    7.4210 C.3   239  VAL239      0.1692
     61  C         37.4240   -2.4400    8.3970 C.2   239  VAL239      0.2592
     62  O         38.0340   -2.9940    9.2950 O.2   239  VAL239     -0.2718
     63  CB        37.6350   -0.0990    7.5430 C.3   239  VAL239      0.0266
     64  CG1       37.6060    0.3430    8.9930 C.3   239  VAL239      0.0020
     65  CG2       38.5120    0.8360    6.7170 C.3   239  VAL239      0.0020
     66  N         36.1080   -2.5600    8.2370 N.am  240  HIS240     -0.1976
     67  CA        35.2850   -3.4020    9.1060 C.3   240  HIS240      0.1656
     68  C         35.7740   -4.8490    9.0960 C.2   240  HIS240      0.2291
     69  O         35.7730   -5.5240   10.1300 O.2   240  HIS240     -0.2864
     70  CB        33.8120   -3.3750    8.6580 C.3   240  HIS240      0.0771
     71  CG        33.0370   -2.1980    9.1680 C.ar  240  HIS240      0.0820
     72  ND1       32.5130   -2.1460   10.4420 N.ar  240  HIS240     -0.2267
     73  CD2       32.7150   -1.0190    8.5830 C.ar  240  HIS240      0.1154
     74  CE1       31.9030   -0.9860   10.6190 C.ar  240  HIS240      0.1986
     75  NE2       32.0110   -0.2840    9.5070 N.ar  240  HIS240     -0.2212
     76  N         41.6290    2.7200    9.5690 N.3   255  ARG255     -0.1245
     77  CA        40.7640    3.8600    9.8810 C.3   255  ARG255      0.1563
     78  C         41.4560    5.2110    9.6380 C.2   255  ARG255      0.2260
     79  O         40.8660    6.1440    9.0880 O.2   255  ARG255     -0.2867
     80  CB        40.3030    3.7630   11.3340 C.3   255  ARG255      0.0307
     81  CG        39.6080    2.4430   11.6750 C.3   255  ARG255      0.0489
     82  CD        38.7910    2.5600   12.9360 C.3   255  ARG255      0.2205
     83  NE        38.3600    3.9430   13.1360 N.pl3 255  ARG255     -0.0865
     84  CZ        37.2500    4.2950   13.7750 C.cat 255  ARG255      0.5346
     85  NH1       36.4580    3.3450   14.2670 N.pl3 255  ARG255      0.1354
     86  NH2       36.9360    5.5840   13.9260 N.pl3 255  ARG255      0.1354
     87  N         42.0970    5.7040    5.7530 N.3   258  LEU258     -0.1231
     88  CA        40.8390    6.1170    5.1390 C.3   258  LEU258      0.1693
     89  C         40.4540    7.5750    5.4450 C.2   258  LEU258      0.2591
     90  O         40.0230    8.3100    4.5520 O.2   258  LEU258     -0.2718
     91  CB        39.7170    5.1680    5.5820 C.3   258  LEU258      0.0284
     92  CG        38.3410    5.3250    4.9190 C.3   258  LEU258      0.0019
     93  CD1       38.4380    4.9900    3.4570 C.3   258  LEU258      0.0001
     94  CD2       37.3240    4.4220    5.5870 C.3   258  LEU258      0.0001
     95  N         40.6160    7.9970    6.6960 N.am  259  ALA259     -0.1980
     96  CA        40.2690    9.3620    7.0780 C.3   259  ALA259      0.1597
     97  C         41.1910   10.3550    6.3700 C.2   259  ALA259      0.2287
     98  O         40.8170   11.5120    6.1460 O.2   259  ALA259     -0.2864
     99  CB        40.3690    9.5320    8.5940 C.3   259  ALA259      0.0319
    100  N         39.8240   10.7240    2.8930 N.3   262  ILE262     -0.1245
    101  CA        38.6370   11.5600    2.9300 C.3   262  ILE262      0.1561
    102  C         38.9440   13.0260    3.1330 C.2   262  ILE262      0.2260
    103  O         38.2950   13.8860    2.5610 O.2   262  ILE262     -0.2867
    104  CB        37.6720   11.1160    4.0370 C.3   262  ILE262      0.0252
    105  CG1       36.9590    9.8310    3.6100 C.3   262  ILE262      0.0019
    106  CG2       36.6760   12.2300    4.3390 C.3   262  ILE262      0.0019
    107  CD1       36.0190    9.2680    4.6680 C.3   262  ILE262      0.0001
    108  N         38.8500   10.0910   12.3010 N.3   285  SER285     -0.1217
    109  CA        37.9570    8.9560   12.0160 C.3   285  SER285      0.1889
    110  C         36.6680    9.0120   12.8270 C.2   285  SER285      0.2288
    111  O         35.5650    8.9370   12.2800 O.2   285  SER285     -0.2866
    112  CB        38.6550    7.6260   12.3010 C.3   285  SER285      0.2089
    113  OG        39.8400    7.4890   11.5440 O.3   285  SER285     -0.2183
    114  N         34.5860   12.2100   11.8240 N.3   288  ILE288     -0.1231
    115  CA        33.9960   12.0260   10.5060 C.3   288  ILE288      0.1692
    116  C         32.7830   11.1010   10.5200 C.2   288  ILE288      0.2591
    117  O         31.7610   11.3970    9.8870 O.2   288  ILE288     -0.2718
    118  CB        35.0220   11.4370    9.5220 C.3   288  ILE288      0.0266
    119  CG1       36.2260   12.3730    9.3850 C.3   288  ILE288      0.0019
    120  CG2       34.3720   11.2030    8.1880 C.3   288  ILE288      0.0020
    121  CD1       37.3990   11.7640    8.6100 C.3   288  ILE288      0.0001
    122  N         32.9170    9.9810   11.2330 N.am  289  ALA289     -0.1980
    123  CA        31.8640    8.9780   11.3260 C.3   289  ALA289      0.1597
    124  C         30.6420    9.5340   12.0050 C.2   289  ALA289      0.2287
    125  O         29.5670    8.9450   11.9610 O.2   289  ALA289     -0.2864
    126  CB        32.3680    7.7720   12.0840 C.3   289  ALA289      0.0319
@<TRIPOS>BOND
     1    43    42    2
     2    42    41    1
     3    44    41    1
     4    44    45    1
     5    41    40    1
     6    23    24    2
     7    23    22    1
     8    25    22    1
     9    25    26    1
    10    45    47   ar
    11    45    46   ar
    12    40    31   am
    13    47    49   ar
    14    27    26    1
    15   103   102    2
    16    22    21    1
    17   100   101    1
    18   101   102    1
    19   101   104    1
    20    51    52    1
    21    26    28    1
    22    21    12   am
    23    46    48   ar
    24    31    32    2
    25    31    30    1
    26    93    92    1
    27    10    11    1
    28    29    30    1
    29    49    50   ar
    30   105   104    1
    31   105   107    1
    32   104   106    1
    33    12    11    1
    34    12    13    2
    35    55    52    1
    36    55    56    1
    37    52    53    1
    38    30    33    1
    39    48    50   ar
    40    90    89    2
    41    53    54    2
    42    11    14    1
    43    92    91    1
    44    92    94    1
    45    33    34    1
    46    88    89    1
    47    88    91    1
    48    88    87    1
    49    89    95   am
    50    56    57    1
    51    56    58    1
    52    14    15    1
    53    59    60    1
    54    98    97    2
    55    97    96    1
    56    34    35    1
    57    95    96    1
    58    65    63    1
    59    15    16    1
    60    35    36    1
    61    96    99    1
    62    60    63    1
    63    60    61    1
    64    63    64    1
    65   120   118    1
    66    66    61   am
    67    66    67    1
    68    16    17    1
    69    61    62    2
    70    36    37    2
    71    73    71   ar
    72    73    75   ar
    73   121   119    1
    74    38    37    1
    75    70    67    1
    76    70    71    1
    77    79    78    2
    78    68    67    1
    79    68    69    2
    80    71    72   ar
    81    37    39    1
    82   119   118    1
    83    17    18    2
    84    75    74   ar
    85   118   115    1
    86    76    77    1
    87    78    77    1
    88    77    80    1
    89   117   116    2
    90    72    74   ar
    91   115   116    1
    92   115   114    1
    93   116   122   am
    94    18    19    1
    95    18    20    1
    96     4     3    2
    97   122   123    1
    98   123   124    1
    99   123   126    1
   100    80    81    1
   101   113   112    1
   102    81    82    1
   103     9     8    1
   104   125   124    2
   105     8     7    1
   106   109   112    1
   107   109   108    1
   108   109   110    1
   109     3     2    1
   110   111   110    2
   111     7     6    1
   112     5     2    1
   113     5     6    1
   114     2     1    1
   115    82    83    1
   116    83    84    2
   117    84    86    1
   118    84    85    1
