@<TRIPOS>MOLECULE
tmp/3b9oA00.pdb
 192 189 0 0 0
SMALL
GASTEIGER

@<TRIPOS>ATOM
      1  N        -10.9810   34.2050   20.1690 N.3     8  PHE8       -0.1241
      2  CA       -12.3070   33.6880   20.5120 C.3     8  PHE8        0.1605
      3  C        -12.1980   32.5500   21.5350 C.2     8  PHE8        0.2264
      4  O        -11.5340   31.5100   21.3080 O.2     8  PHE8       -0.2867
      5  CB       -13.0440   33.2050   19.2690 C.3     8  PHE8        0.0534
      6  CG       -14.5120   33.0210   19.4480 C.ar    8  PHE8       -0.0203
      7  CD1      -15.2730   33.9490   20.1510 C.ar    8  PHE8       -0.0042
      8  CD2      -15.1560   31.9230   18.8650 C.ar    8  PHE8       -0.0042
      9  CE1      -16.6470   33.7800   20.2990 C.ar    8  PHE8       -0.0003
     10  CE2      -16.5510   31.7680   18.9910 C.ar    8  PHE8       -0.0003
     11  CZ       -17.2860   32.6870   19.6820 C.ar    8  PHE8       -0.0000
     12  N        -12.1390   37.5630   23.4360 N.3    53  PHE53      -0.1241
     13  CA       -13.6040   37.6310   23.2920 C.3    53  PHE53       0.1605
     14  C        -14.1750   36.3490   23.8920 C.2    53  PHE53       0.2264
     15  O        -13.9330   35.2490   23.3810 O.2    53  PHE53      -0.2867
     16  CB       -13.9950   37.7970   21.7930 C.3    53  PHE53       0.0534
     17  CG       -15.4810   38.0050   21.5380 C.ar   53  PHE53      -0.0203
     18  CD1      -15.9290   39.1620   20.9110 C.ar   53  PHE53      -0.0042
     19  CD2      -16.4250   37.0480   21.8910 C.ar   53  PHE53      -0.0042
     20  CE1      -17.3160   39.3670   20.6430 C.ar   53  PHE53      -0.0003
     21  CE2      -17.8290   37.2570   21.6520 C.ar   53  PHE53      -0.0003
     22  CZ       -18.2570   38.4060   21.0150 C.ar   53  PHE53      -0.0000
     23  N        -17.2190   34.0290   24.7740 N.3    55  ALA55      -0.1231
     24  CA       -18.6090   33.5600   24.6370 C.3    55  ALA55       0.1694
     25  C        -19.1240   33.0910   26.0090 C.2    55  ALA55       0.2592
     26  O        -18.3470   32.9500   26.9870 O.2    55  ALA55      -0.2718
     27  CB       -18.6820   32.4150   23.6160 C.3    55  ALA55       0.0304
     28  N        -20.4290   32.8740   26.0970 N.am   56  ASP56      -0.1960
     29  CA       -21.0270   32.3220   27.3000 C.3    56  ASP56       0.1840
     30  C        -22.4010   31.7660   27.0210 C.2    56  ASP56       0.2621
     31  O        -23.0960   32.2130   26.0910 O.2    56  ASP56      -0.2715
     32  CB       -21.2140   33.3850   28.3840 C.3    56  ASP56       0.1450
     33  CG       -21.4900   32.7710   29.7490 C.2    56  ASP56       0.3671
     34  OD1      -20.9480   31.6570   30.0580 O.co2  56  ASP56      -0.2456
     35  OD2      -22.2410   33.4160   30.5170 O.co2  56  ASP56      -0.2456
     36  N        -22.8020   30.8130   27.8520 N.am   57  VAL57      -0.1977
     37  CA       -24.2020   30.3500   27.8770 C.3    57  VAL57       0.1596
     38  C        -24.5290   30.0460   29.3390 C.2    57  VAL57       0.2287
     39  O        -23.6460   29.6250   30.1130 O.2    57  VAL57      -0.2864
     40  CB       -24.4480   29.0230   27.0210 C.3    57  VAL57       0.0276
     41  CG1      -24.1840   29.2270   25.5260 C.3    57  VAL57       0.0022
     42  CG2      -23.6730   27.8000   27.6030 C.3    57  VAL57       0.0022
     43  N        -19.3910   38.0850   26.9690 N.3   102  THR102     -0.1218
     44  CA       -20.7860   37.8050   26.5890 C.3   102  THR102      0.1862
     45  C        -21.5820   37.7190   27.8750 C.2   102  THR102      0.2287
     46  O        -21.1590   37.0870   28.8440 O.2   102  THR102     -0.2866
     47  CB       -20.9250   36.4800   25.7710 C.3   102  THR102      0.1770
     48  OG1      -20.2340   36.6210   24.5270 O.3   102  THR102     -0.2211
     49  CG2      -22.4180   36.0930   25.5040 C.3   102  THR102      0.0375
     50  N        -20.4830   41.9170   25.0630 N.3   131  ASN131     -0.1240
     51  CA       -21.2500   41.2810   23.9890 C.3   131  ASN131      0.1653
     52  C        -22.6860   41.0140   24.4380 C.2   131  ASN131      0.2266
     53  O        -22.9660   40.0950   25.2100 O.2   131  ASN131     -0.2867
     54  CB       -20.5620   40.0300   23.4450 C.3   131  ASN131      0.1155
     55  CG       -21.3590   39.3670   22.2940 C.2   131  ASN131      0.2627
     56  OD1      -21.8770   40.0510   21.4060 O.2   131  ASN131     -0.2716
     57  ND2      -21.4590   38.0480   22.3160 N.am  131  ASN131     -0.0877
     58  N        -26.3110   39.8810   24.2830 N.3   133  VAL133     -0.1231
     59  CA       -26.8990   38.6750   23.7450 C.3   133  VAL133      0.1692
     60  C        -28.3190   38.5170   24.3540 C.2   133  VAL133      0.2593
     61  O        -28.5940   39.0850   25.4120 O.2   133  VAL133     -0.2718
     62  CB       -25.9200   37.5160   24.1120 C.3   133  VAL133      0.0266
     63  CG1      -26.6050   36.3270   24.6870 C.3   133  VAL133      0.0020
     64  CG2      -24.9580   37.2370   22.9540 C.3   133  VAL133      0.0020
     65  N        -29.2120   37.8020   23.6620 N.am  134  THR134     -0.1939
     66  CA       -30.5200   37.4170   24.2280 C.3   134  THR134      0.2028
     67  C        -30.6360   35.9520   24.6870 C.2   134  THR134      0.2643
     68  O        -31.5130   35.6470   25.4770 O.2   134  THR134     -0.2714
     69  CB       -31.7030   37.6590   23.2500 C.3   134  THR134      0.1808
     70  OG1      -31.3720   37.1000   21.9810 O.3   134  THR134     -0.2208
     71  CG2      -31.9840   39.1550   23.0710 C.3   134  THR134      0.0379
     72  N        -29.8250   35.0200   24.1950 N.am  135  SER135     -0.1935
     73  CA       -29.9710   33.6130   24.6970 C.3   135  SER135      0.2055
     74  C        -31.1530   32.8420   24.0670 C.2   135  SER135      0.2643
     75  O        -32.2400   33.3910   23.8430 O.2   135  SER135     -0.2714
     76  CB       -30.1500   33.5590   26.2260 C.3   135  SER135      0.2130
     77  OG       -29.0320   34.1290   26.9180 O.3   135  SER135     -0.2179
     78  N        -30.9500   31.5590   23.8140 N.am  136  HIS136     -0.1959
     79  CA       -31.9040   30.8020   23.0140 C.3   136  HIS136      0.1787
     80  C        -32.0080   29.3880   23.5220 C.2   136  HIS136      0.2620
     81  O        -32.4840   28.5150   22.7850 O.2   136  HIS136     -0.2715
     82  CB       -31.4090   30.7490   21.5620 C.3   136  HIS136      0.0785
     83  CG       -29.9470   30.4640   21.4530 C.ar  136  HIS136      0.0821
     84  ND1      -29.0150   31.4450   21.1890 N.ar  136  HIS136     -0.2267
     85  CD2      -29.2480   29.3180   21.6230 C.ar  136  HIS136      0.1154
     86  CE1      -27.8090   30.9090   21.1650 C.ar  136  HIS136      0.1986
     87  NE2      -27.9220   29.6170   21.4270 N.ar  136  HIS136     -0.2212
     88  N        -31.5040   29.1490   24.7360 N.am  137  LEU137     -0.1977
     89  CA       -31.4480   27.7980   25.3030 C.3   137  LEU137      0.1596
     90  C        -32.4580   27.6790   26.4440 C.2   137  LEU137      0.2287
     91  O        -32.2720   28.2990   27.4950 O.2   137  LEU137     -0.2864
     92  CB       -30.0230   27.4490   25.7490 C.3   137  LEU137      0.0297
     93  CG       -28.9270   27.2950   24.6720 C.3   137  LEU137      0.0022
     94  CD1      -27.5420   27.2910   25.3000 C.3   137  LEU137      0.0001
     95  CD2      -29.1010   26.0570   23.8270 C.3   137  LEU137      0.0001
     96  N        -38.6560   34.9940   20.8010 N.3   152  HIS152     -0.1241
     97  CA       -37.4140   35.4730   20.1720 C.3   152  HIS152      0.1621
     98  C        -37.3090   37.0050   20.0150 C.2   152  HIS152      0.2264
     99  O        -36.3610   37.6170   20.5140 O.2   152  HIS152     -0.2867
    100  CB       -37.2010   34.7850   18.8230 C.3   152  HIS152      0.0745
    101  CG       -36.0530   35.3470   18.0340 C.ar  152  HIS152      0.0817
    102  ND1      -34.7980   34.7750   18.0250 N.ar  152  HIS152     -0.2268
    103  CD2      -35.9680   36.4470   17.2530 C.ar  152  HIS152      0.1154
    104  CE1      -34.0010   35.4820   17.2430 C.ar  152  HIS152      0.1986
    105  NE2      -34.6840   36.5090   16.7740 N.ar  152  HIS152     -0.2212
    106  N        -35.4340   40.7420   22.3280 N.3   156  TYR156     -0.1241
    107  CA       -34.6960   41.9220   21.8530 C.3   156  TYR156      0.1605
    108  C        -35.3020   43.2540   22.3080 C.2   156  TYR156      0.2264
    109  O        -34.5730   44.2170   22.5550 O.2   156  TYR156     -0.2867
    110  CB       -34.5210   41.9030   20.3250 C.3   156  TYR156      0.0534
    111  CG       -33.3550   41.0520   19.8680 C.ar  156  TYR156     -0.0201
    112  CD1      -33.5520   39.7940   19.3110 C.ar  156  TYR156     -0.0009
    113  CD2      -32.0480   41.5000   20.0260 C.ar  156  TYR156     -0.0009
    114  CE1      -32.4520   39.0050   18.9010 C.ar  156  TYR156      0.0417
    115  CE2      -30.9430   40.7230   19.6320 C.ar  156  TYR156      0.0417
    116  CZ       -31.1400   39.4820   19.0710 C.ar  156  TYR156      0.1957
    117  OH       -30.0310   38.7290   18.6790 O.3   156  TYR156     -0.2866
    118  N        -23.9060   40.0810   18.8210 N.3   225  ALA225     -0.1231
    119  CA       -23.8270   38.8800   17.9940 C.3   225  ALA225      0.1694
    120  C        -25.2560   38.3130   17.9960 C.2   225  ALA225      0.2593
    121  O        -25.8640   38.1680   19.0750 O.2   225  ALA225     -0.2718
    122  CB       -22.8260   37.8850   18.6040 C.3   225  ALA225      0.0304
    123  N        -25.8070   38.0520   16.8060 N.am  226  GLY226     -0.1942
    124  CA       -27.2160   37.6240   16.6590 C.3   226  GLY226      0.2014
    125  C        -27.6500   38.0690   15.2770 C.2   226  GLY226      0.2639
    126  O        -27.7800   39.2860   14.9930 O.2   226  GLY226     -0.2714
    127  N        -27.7960   37.0850   14.4010 N.am  227  MET227     -0.1963
    128  CA       -27.9300   37.3230   12.9420 C.3   227  MET227      0.1736
    129  C        -29.3740   37.4250   12.4140 C.2   227  MET227      0.2617
    130  O        -29.6030   37.7400   11.2280 O.2   227  MET227     -0.2715
    131  CB       -27.1540   36.2430   12.1650 C.3   227  MET227      0.0427
    132  CG       -25.6450   36.4220   12.1790 C.3   227  MET227      0.0599
    133  SD       -25.0000   37.8400   11.2330 S.3   227  MET227     -0.1393
    134  CE       -25.9260   39.2710   11.6980 C.3   227  MET227      0.0692
    135  N        -30.3380   37.1330   13.2820 N.am  228  SER228     -0.1950
    136  CA       -31.7600   37.2740   12.9280 C.3   228  SER228      0.1924
    137  C        -32.0320   38.6940   12.4900 C.2   228  SER228      0.2314
    138  O        -31.2330   39.6070   12.7680 O.2   228  SER228     -0.2863
    139  CB       -32.6560   36.8910   14.1060 C.3   228  SER228      0.2116
    140  OG       -32.5330   37.8640   15.1290 O.3   228  SER228     -0.2180
    141  N        -32.1200   40.8690   15.4790 N.3   231  GLY231     -0.1225
    142  CA       -30.7380   41.0090   15.9220 C.3   231  GLY231      0.1811
    143  C        -29.9550   42.0440   15.1110 C.2   231  GLY231      0.2280
    144  O        -29.3030   42.9070   15.6750 O.2   231  GLY231     -0.2866
    145  N        -20.3640   41.0180   15.6060 N.3   243  PHE243     -0.1227
    146  CA       -19.7720   39.7140   15.2850 C.3   243  PHE243      0.1736
    147  C        -20.7820   39.0090   14.3400 C.2   243  PHE243      0.2595
    148  O        -21.8220   38.5210   14.7670 O.2   243  PHE243     -0.2718
    149  CB       -19.5330   38.9520   16.6150 C.3   243  PHE243      0.0547
    150  CG       -18.8650   37.5740   16.4870 C.ar  243  PHE243     -0.0202
    151  CD1      -18.9040   36.6930   17.5920 C.ar  243  PHE243     -0.0042
    152  CD2      -18.2350   37.1330   15.3020 C.ar  243  PHE243     -0.0042
    153  CE1      -18.3050   35.4020   17.5070 C.ar  243  PHE243     -0.0003
    154  CE2      -17.6160   35.8340   15.2160 C.ar  243  PHE243     -0.0003
    155  CZ       -17.6720   34.9780   16.3210 C.ar  243  PHE243     -0.0000
    156  N        -20.4460   38.9800   13.0620 N.am  244  LEU244     -0.1966
    157  CA       -21.2780   38.4330   11.9920 C.3   244  LEU244      0.1728
    158  C        -20.9930   36.9680   11.7240 C.2   244  LEU244      0.2616
    159  O        -19.8500   36.4890   11.8630 O.2   244  LEU244     -0.2715
    160  CB       -20.9470   39.1660   10.7200 C.3   244  LEU244      0.0311
    161  CG       -21.6410   40.3940   10.1370 C.3   244  LEU244      0.0022
    162  CD1      -22.6600   41.0000   11.0120 C.3   244  LEU244      0.0001
    163  CD2      -20.5910   41.3710    9.6190 C.3   244  LEU244      0.0001
    164  N        -22.0460   36.2500   11.3500 N.am  245  GLY245     -0.1955
    165  CA       -21.9040   34.9220   10.7660 C.3   245  GLY245      0.1869
    166  C        -21.6600   35.0550    9.2770 C.2   245  GLY245      0.2309
    167  O        -22.0520   36.0490    8.6670 O.2   245  GLY245     -0.2863
    168  N        -20.0960   28.0900   10.2350 N.3   346  TRP346     -0.1227
    169  CA       -20.4420   29.3600    9.5790 C.3   346  TRP346      0.1737
    170  C        -19.3110   30.4200    9.5840 C.2   346  TRP346      0.2595
    171  O        -19.5790   31.6200    9.4110 O.2   346  TRP346     -0.2718
    172  CB       -21.7890   29.9190   10.0750 C.3   346  TRP346      0.0564
    173  CG       -22.5810   30.6910    8.9700 C.ar  346  TRP346      0.0003
    174  CD1      -22.3960   30.6060    7.5930 C.ar  346  TRP346      0.0946
    175  CD2      -23.6810   31.6090    9.1640 C.ar  346  TRP346      0.0152
    176  NE1      -23.2970   31.4320    6.9390 N.ar  346  TRP346     -0.2442
    177  CE2      -24.0970   32.0520    7.8700 C.ar  346  TRP346      0.0810
    178  CE3      -24.3440   32.1120   10.2990 C.ar  346  TRP346      0.0012
    179  CZ2      -25.1480   32.9720    7.6850 C.ar  346  TRP346      0.0191
    180  CZ3      -25.3910   33.0280   10.1150 C.ar  346  TRP346      0.0001
    181  CH2      -25.7830   33.4440    8.8090 C.ar  346  TRP346      0.0015
    182  N        -18.0690   29.9520    9.7820 N.am  347  PHE347     -0.1976
    183  CA       -16.8450   30.7600    9.7020 C.3   347  PHE347      0.1639
    184  C        -15.9290   30.2920    8.5790 C.2   347  PHE347      0.2290
    185  O        -15.8220   29.1000    8.2920 O.2   347  PHE347     -0.2864
    186  CB       -16.0600   30.6790   11.0240 C.3   347  PHE347      0.0560
    187  CG       -16.8600   31.0830   12.2270 C.ar  347  PHE347     -0.0200
    188  CD1      -17.5000   32.3410   12.2770 C.ar  347  PHE347     -0.0042
    189  CD2      -17.0070   30.2200   13.3010 C.ar  347  PHE347     -0.0042
    190  CE1      -18.2640   32.7430   13.3910 C.ar  347  PHE347     -0.0003
    191  CE2      -17.7710   30.6230   14.4400 C.ar  347  PHE347     -0.0003
    192  CZ       -18.3940   31.8880   14.4710 C.ar  347  PHE347     -0.0000
@<TRIPOS>BOND
     1   176   174   ar
     2   176   177   ar
     3   174   173   ar
     4   179   177   ar
     5   179   181   ar
     6   177   175   ar
     7   185   184    2
     8   184   183    1
     9   167   166    2
    10   181   180   ar
    11   173   175   ar
    12   173   172    1
    13   175   178   ar
    14   166   165    1
    15   171   170    2
    16   169   170    1
    17   169   172    1
    18   169   168    1
    19   170   182   am
    20   163   161    1
    21   183   182    1
    22   183   186    1
    23   180   178   ar
    24   161   160    1
    25   161   162    1
    26   160   157    1
    27   165   164    1
    28   186   187    1
    29   130   129    2
    30   133   134    1
    31   133   132    1
    32   164   158   am
    33   158   159    2
    34   158   157    1
    35   157   156    1
    36   131   132    1
    37   131   128    1
    38   187   188   ar
    39   187   189   ar
    40   188   190   ar
    41   129   128    1
    42   129   135   am
    43   137   138    2
    44   137   136    1
    45   136   135    1
    46   136   139    1
    47   128   127    1
    48   156   147   am
    49   189   191   ar
    50   190   192   ar
    51   139   140    1
    52   147   148    2
    53   147   146    1
    54   127   125   am
    55   191   192   ar
    56   126   125    2
    57   143   144    2
    58   143   142    1
    59   154   152   ar
    60   154   155   ar
    61   125   124    1
    62   146   145    1
    63   146   149    1
    64   152   150   ar
    65   141   142    1
    66   155   153   ar
    67   150   149    1
    68   150   151   ar
    69   124   123    1
    70   105   104   ar
    71   105   103   ar
    72   123   120   am
    73   104   102   ar
    74   103   101   ar
    75   153   151   ar
    76   119   120    1
    77   119   122    1
    78   119   118    1
    79   120   121    2
    80   102   101   ar
    81   101   100    1
    82   117   116    1
    83   100    97    1
    84     8    10   ar
    85     8     6   ar
    86   114   116   ar
    87   114   112   ar
    88    10    11   ar
    89   116   115   ar
    90     5     6    1
    91     5     2    1
    92   112   111   ar
    93     6     7   ar
    94   115   113   ar
    95    11     9   ar
    96   111   113   ar
    97   111   110    1
    98    98    97    1
    99    98    99    2
   100     7     9   ar
   101     1     2    1
   102    97    96    1
   103   110   107    1
   104     2     3    1
   105    20    18   ar
   106    20    22   ar
   107    18    17   ar
   108    22    21   ar
   109    86    84   ar
   110    86    87   ar
   111    84    83   ar
   112     4     3    2
   113    56    55    2
   114    87    85   ar
   115    83    82    1
   116    83    85   ar
   117    17    16    1
   118    17    19   ar
   119    82    79    1
   120    21    19   ar
   121    16    13    1
   122   107   108    1
   123   107   106    1
   124    70    69    1
   125    55    57   am
   126    55    54    1
   127   108   109    2
   128    81    80    2
   129    64    62    1
   130    79    80    1
   131    79    78    1
   132    71    69    1
   133    69    66    1
   134    13    12    1
   135    13    14    1
   136    15    14    2
   137    54    51    1
   138    80    88   am
   139    27    24    1
   140    65    66    1
   141    65    60   am
   142    59    62    1
   143    59    58    1
   144    59    60    1
   145    78    74   am
   146    95    93    1
   147    75    74    2
   148    51    52    1
   149    51    50    1
   150    74    73    1
   151    62    63    1
   152    72    67   am
   153    72    73    1
   154    66    67    1
   155    60    61    2
   156    52    53    2
   157    48    47    1
   158    24    23    1
   159    24    25    1
   160    93    94    1
   161    93    92    1
   162    67    68    2
   163    73    76    1
   164    88    89    1
   165    89    92    1
   166    89    90    1
   167    49    47    1
   168    41    40    1
   169    47    44    1
   170    25    28   am
   171    25    26    2
   172    31    30    2
   173    28    29    1
   174    76    77    1
   175    90    91    2
   176    44    43    1
   177    44    45    1
   178    30    29    1
   179    30    36   am
   180    40    42    1
   181    40    37    1
   182    29    32    1
   183    36    37    1
   184    45    46    2
   185    37    38    1
   186    32    33    1
   187    38    39    2
   188    33    34   ar
   189    33    35   ar
