@<TRIPOS>MOLECULE
tmp/3b9sC00.pdb
 94 91 0 0 0
SMALL
GASTEIGER

@<TRIPOS>ATOM
      1  N         -8.3960    5.5820   -3.8780 N.3     1  PRO1       -0.2102
      2  CA        -9.4480    5.1450   -4.8110 C.3     1  PRO1        0.1504
      3  C        -10.8400    4.8110   -4.2310 C.2     1  PRO1        0.2578
      4  O        -10.9590    4.4080   -3.0800 O.2     1  PRO1       -0.2718
      5  CB        -8.8250    3.9210   -5.4450 C.3     1  PRO1        0.0282
      6  CG        -7.9630    3.3560   -4.3020 C.3     1  PRO1        0.0208
      7  CD        -7.2870    4.6120   -3.8350 C.3     1  PRO1        0.0893
      8  N        -11.8880    5.0400   -5.0350 N.am    2  MET2       -0.1934
      9  CA       -13.2580    4.6850   -4.6610 C.3     2  MET2        0.1821
     10  C        -13.7280    3.5750   -5.6020 C.2     2  MET2        0.2332
     11  O        -13.7610    3.7740   -6.8140 O.2     2  MET2       -0.2860
     12  CB       -14.1970    5.8810   -4.7830 C.2     2  MET2        0.0096
     13  CG       -15.7240    5.5860   -4.5510 C.2     2  MET2        0.0285
     14  SD       -16.8970    6.9440   -4.9860 S.3     2  MET2       -0.1125
     15  CE       -15.8080    8.2990   -4.6130 C.3     2  MET2        0.0742
     16  N         -1.5790    3.8130   -1.7740 N.3    32  LYS32      -0.1245
     17  CA        -2.3310    4.9380   -1.2050 C.3    32  LYS32       0.1561
     18  C         -2.8350    4.5850    0.1880 C.2    32  LYS32       0.2260
     19  O         -3.1270    3.4170    0.4450 O.2    32  LYS32      -0.2867
     20  CB        -3.5250    5.2660   -2.0780 C.3    32  LYS32       0.0271
     21  CG        -3.1860    5.9690   -3.3550 C.3    32  LYS32       0.0035
     22  CD        -4.1030    7.1610   -3.5240 C.3    32  LYS32       0.0206
     23  CE        -3.3660    8.3160   -4.2000 C.3    32  LYS32       0.1093
     24  NZ        -2.8870    7.9300   -5.5520 N.3    32  LYS32      -0.1314
     25  N         -8.3460    6.8480    2.9690 N.3    36  TYR36      -0.1227
     26  CA        -9.0080    7.6400    1.9260 C.3    36  TYR36       0.1736
     27  C         -9.8390    6.7320    1.0120 C.2    36  TYR36       0.2595
     28  O        -10.5890    7.2270    0.1640 O.2    36  TYR36      -0.2718
     29  CB        -7.9700    8.3930    1.0810 C.3    36  TYR36       0.0548
     30  CG        -7.4290    9.6530    1.7200 C.ar   36  TYR36      -0.0200
     31  CD1       -8.0750   10.8770    1.5420 C.ar   36  TYR36      -0.0009
     32  CD2       -6.2770    9.6180    2.5110 C.ar   36  TYR36      -0.0009
     33  CE1       -7.5800   12.0570    2.1270 C.ar   36  TYR36       0.0417
     34  CE2       -5.7620   10.7850    3.0890 C.ar   36  TYR36       0.0417
     35  CZ        -6.4090   11.9960    2.8930 C.ar   36  TYR36       0.1957
     36  OH        -5.9180   13.1640    3.4740 O.3    36  TYR36      -0.2866
     37  N         -9.6730    5.4200    1.1700 N.am   37  ILE37      -0.1980
     38  CA       -10.2890    4.4560    0.2400 C.3    37  ILE37       0.1595
     39  C        -11.7300    4.1490    0.6260 C.2    37  ILE37       0.2287
     40  O        -12.0070    3.8140    1.7740 O.2    37  ILE37      -0.2864
     41  CB        -9.4320    3.1630    0.1430 C.3    37  ILE37       0.0276
     42  CG1       -8.0520    3.4990   -0.4720 C.3    37  ILE37       0.0022
     43  CG2      -10.1600    2.0900   -0.7000 C.3    37  ILE37       0.0022
     44  CD1       -7.1300    2.3240   -0.6080 C.3    37  ILE37       0.0001
     45  N        -12.9840    5.3610   -9.1400 N.3    62  HIS62      -0.1226
     46  CA       -12.6950    6.7870   -9.2470 C.3    62  HIS62       0.1752
     47  C        -11.3920    7.0160   -8.5100 C.2    62  HIS62       0.2597
     48  O        -11.2230    6.5230   -7.3890 O.2    62  HIS62      -0.2718
     49  CB       -13.7770    7.6640   -8.5650 C.3    62  HIS62       0.0759
     50  CG       -15.1110    7.6300   -9.2290 C.ar   62  HIS62       0.0818
     51  ND1      -15.9490    6.5410   -9.1520 N.ar   62  HIS62      -0.2268
     52  CD2      -15.7820    8.5710   -9.9340 C.ar   62  HIS62       0.1154
     53  CE1      -17.0570    6.7890   -9.8210 C.ar   62  HIS62       0.1986
     54  NE2      -16.9800    8.0150  -10.3060 N.ar   62  HIS62      -0.2212
     55  N        -10.4900    7.7670   -9.1350 N.am   63  SER63      -0.1938
     56  CA        -9.2590    8.2170   -8.4830 C.3    63  SER63       0.2055
     57  C         -9.0790    9.7140   -8.7520 C.2    63  SER63       0.2642
     58  O         -9.5650   10.2570   -9.7630 O.2    63  SER63      -0.2714
     59  CB        -8.0430    7.4430   -9.0360 C.3    63  SER63       0.2130
     60  OG        -8.2330    6.0180   -8.9290 O.3    63  SER63      -0.2179
     61  N         -8.3740   10.3900   -7.8520 N.am   64  ILE64      -0.1977
     62  CA        -7.9520   11.7430   -8.1660 C.3    64  ILE64       0.1596
     63  C         -6.5760   11.6570   -8.8100 C.2    64  ILE64       0.2287
     64  O         -5.5730   11.3930   -8.1460 O.2    64  ILE64      -0.2864
     65  CB        -8.0080   12.6930   -6.9380 C.3    64  ILE64       0.0276
     66  CG1       -9.4670   12.8140   -6.4620 C.3    64  ILE64       0.0022
     67  CG2       -7.4760   14.0540   -7.3450 C.3    64  ILE64       0.0022
     68  CD1       -9.6700   13.6170   -5.1420 C.3    64  ILE64       0.0001
     69  N        -10.8650   11.9400  -11.5190 N.3   101  MET101     -0.1245
     70  CA       -11.5450   13.1190  -10.9610 C.3   101  MET101      0.1570
     71  C        -10.5590   14.2850  -10.7150 C.2   101  MET101      0.2261
     72  O         -9.4480   14.0560  -10.2220 O.2   101  MET101     -0.2867
     73  CB       -12.2400   12.7720   -9.6270 C.3   101  MET101      0.0387
     74  CG       -13.3410   11.7070   -9.7090 C.3   101  MET101      0.0595
     75  SD       -14.6750   12.1970  -10.8380 S.3   101  MET101     -0.1393
     76  CE       -15.3540   13.6570  -10.0450 C.3   101  MET101      0.0692
     77  N        -14.2660   17.0830   -6.3320 N.3   106  VAL106     -0.1245
     78  CA       -14.5370   16.0930   -5.3060 C.3   106  VAL106      0.1561
     79  C        -14.8080   16.7700   -3.9420 C.2   106  VAL106      0.2260
     80  O        -13.8930   17.3650   -3.3410 O.2   106  VAL106     -0.2867
     81  CB       -13.4080   15.0580   -5.1660 C.3   106  VAL106      0.0252
     82  CG1      -13.7390   14.1140   -3.9820 C.3   106  VAL106      0.0019
     83  CG2      -13.2740   14.2020   -6.4400 C.3   106  VAL106      0.0019
     84  N        -11.3050   18.8160   -2.1890 N.3   113  PHE113     -0.1241
     85  CA        -9.8940   18.5090   -2.0580 C.3   113  PHE113      0.1605
     86  C         -9.0170   19.5410   -2.7990 C.2   113  PHE113      0.2264
     87  O         -7.8030   19.3950   -2.8170 O.2   113  PHE113     -0.2867
     88  CB        -9.5860   17.0840   -2.6030 C.3   113  PHE113      0.0534
     89  CG        -9.9990   15.9630   -1.6850 C.ar  113  PHE113     -0.0203
     90  CD1      -11.0990   15.1610   -1.9880 C.ar  113  PHE113     -0.0042
     91  CD2       -9.3050   15.7090   -0.4930 C.ar  113  PHE113     -0.0042
     92  CE1      -11.4480   14.1100   -1.1590 C.ar  113  PHE113     -0.0003
     93  CE2       -9.6830   14.6820    0.3500 C.ar  113  PHE113     -0.0003
     94  CZ       -10.7410   13.8770    0.0180 C.ar  113  PHE113     -0.0000
@<TRIPOS>BOND
     1    69    70    1
     2    70    71    1
     3    70    73    1
     4    75    76    1
     5    75    74    1
     6    71    72    2
     7    54    52   ar
     8    54    53   ar
     9    52    50   ar
    10    53    51   ar
    11    58    57    2
    12    74    73    1
    13    46    45    1
    14    46    49    1
    15    46    47    1
    16    50    51   ar
    17    50    49    1
    18    55    47   am
    19    55    56    1
    20    59    60    1
    21    59    56    1
    22    63    62    1
    23    63    64    2
    24    57    56    1
    25    57    61   am
    26    47    48    2
    27    62    61    1
    28    62    65    1
    29    67    65    1
    30    65    66    1
    31    11    10    2
    32    66    68    1
    33    83    81    1
    34    77    78    1
    35    10     9    1
    36    24    23    1
    37     5     2    1
    38     5     6    1
    39    78    81    1
    40    78    79    1
    41    81    82    1
    42     8     9    1
    43     8     3   am
    44    14    15    1
    45    14    13    1
    46     2     3    1
    47     2     1    1
    48    12     9    1
    49    12    13    2
    50     6     7    1
    51     3     4    2
    52    23    22    1
    53    79    80    2
    54     1     7    1
    55    22    21    1
    56    21    20    1
    57    87    86    2
    58    86    85    1
    59    88    85    1
    60    88    89    1
    61    84    85    1
    62    20    17    1
    63    90    89   ar
    64    90    92   ar
    65    16    17    1
    66    89    91   ar
    67    17    18    1
    68    92    94   ar
    69    43    41    1
    70    44    42    1
    71    91    93   ar
    72    42    41    1
    73    94    93   ar
    74    41    38    1
    75    28    27    2
    76    18    19    2
    77    38    39    1
    78    38    37    1
    79    39    40    2
    80    27    37   am
    81    27    26    1
    82    29    30    1
    83    29    26    1
    84    31    30   ar
    85    31    33   ar
    86    30    32   ar
    87    26    25    1
    88    33    35   ar
    89    32    34   ar
    90    35    34   ar
    91    35    36    1
