@<TRIPOS>MOLECULE
tmp/3b9xA00.pdb
 172 163 0 0 0
SMALL
GASTEIGER

@<TRIPOS>ATOM
      1  N        -13.4670   23.2130   13.4000 N.3     9  ASP9       -0.1239
      2  CA       -14.4260   22.9830   12.3240 C.3     9  ASP9        0.1674
      3  C        -15.8480   22.8440   12.9050 C.2     9  ASP9        0.2266
      4  O        -16.4530   21.7530   12.8240 O.2     9  ASP9       -0.2867
      5  CB       -14.0540   21.7030   11.5700 C.3     9  ASP9        0.1410
      6  CG       -14.0020   20.4830   12.4850 C.2     9  ASP9        0.3668
      7  OD1      -13.7020   20.6860   13.6890 O.co2   9  ASP9       -0.2456
      8  OD2      -14.2280   19.3400   11.9860 O.co2   9  ASP9       -0.2456
      9  N        -18.8170   20.0690   19.7990 N.3    13  ASP13      -0.1225
     10  CA       -17.7430   20.1510   20.7940 C.3    13  ASP13       0.1805
     11  C        -16.6900   21.2110   20.4750 C.2    13  ASP13       0.2597
     12  O        -16.1000   21.7820   21.3970 O.2    13  ASP13      -0.2718
     13  CB       -17.1140   18.7990   21.1140 C.3    13  ASP13       0.1424
     14  CG       -16.5520   18.0910   19.8830 C.2    13  ASP13       0.3668
     15  OD1      -17.2200   18.0830   18.8520 O.co2  13  ASP13      -0.2456
     16  OD2      -15.4390   17.5220   19.9500 O.co2  13  ASP13      -0.2456
     17  N        -16.4790   21.5350   19.1990 N.am   14  ASP14      -0.1974
     18  CA       -15.6870   22.7370   18.8910 C.3    14  ASP14       0.1709
     19  C        -16.2730   23.9830   19.5510 C.2    14  ASP14       0.2293
     20  O        -15.5470   24.8110   20.0510 O.2    14  ASP14      -0.2864
     21  CB       -15.6120   23.0030   17.4090 C.3    14  ASP14       0.1436
     22  CG       -15.1600   21.7910   16.6260 C.2    14  ASP14       0.3671
     23  OD1      -13.9330   21.7360   16.2850 O.co2  14  ASP14      -0.2456
     24  OD2      -16.0470   20.9050   16.3520 O.co2  14  ASP14      -0.2456
     25  N        -16.2580   18.6070    9.8880 N.3    38  ASN38      -0.1240
     26  CA       -17.5930   18.2510   10.3330 C.3    38  ASN38       0.1653
     27  C        -18.6370   18.5400    9.2490 C.2    38  ASN38       0.2266
     28  O        -19.5420   17.7100    8.9880 O.2    38  ASN38      -0.2867
     29  CB       -17.9360   18.9960   11.6380 C.3    38  ASN38       0.1155
     30  CG       -17.3550   18.3170   12.8930 C.2    38  ASN38       0.2627
     31  OD1      -16.9550   19.0060   13.8560 O.2    38  ASN38      -0.2716
     32  ND2      -17.3050   16.9810   12.8950 N.am   38  ASN38      -0.0877
     33  N        -19.1680   14.9480    8.2870 N.3    76  ALA76      -0.1245
     34  CA       -19.8720   14.2330    9.3360 C.3    76  ALA76       0.1562
     35  C        -21.2170   14.8900    9.5580 C.2    76  ALA76       0.2260
     36  O        -21.5120   15.3100   10.6530 O.2    76  ALA76      -0.2867
     37  CB       -19.0610   14.1980   10.6200 C.3    76  ALA76       0.0290
     38  N        -23.1340   12.8500   12.4880 N.3    79  ILE79      -0.1231
     39  CA       -22.9520   13.2360   13.8840 C.3    79  ILE79       0.1692
     40  C        -23.4540   14.6700   14.1890 C.2    79  ILE79       0.2592
     41  O        -24.0270   14.9330   15.2560 O.2    79  ILE79      -0.2718
     42  CB       -21.4360   13.0750   14.3340 C.3    79  ILE79       0.0266
     43  CG1      -20.9030   11.6470   14.0910 C.3    79  ILE79       0.0019
     44  CG2      -21.2140   13.5440   15.7830 C.3    79  ILE79       0.0020
     45  CD1      -21.6190   10.5160   14.8890 C.3    79  ILE79       0.0001
     46  N        -23.2170   15.5870   13.2510 N.am   80  HIS80      -0.1976
     47  CA       -23.2850   17.0150   13.5160 C.3    80  HIS80       0.1656
     48  C        -24.3970   17.7240   12.7620 C.2    80  HIS80       0.2291
     49  O        -24.5310   18.9460   12.8540 O.2    80  HIS80      -0.2864
     50  CB       -21.9260   17.6570   13.2060 C.3    80  HIS80       0.0771
     51  CG       -20.8700   17.3240   14.2140 C.ar   80  HIS80       0.0820
     52  ND1      -19.9310   16.3370   14.0130 N.ar   80  HIS80      -0.2267
     53  CD2      -20.6300   17.8220   15.4470 C.ar   80  HIS80       0.1154
     54  CE1      -19.1400   16.2630   15.0650 C.ar   80  HIS80       0.1986
     55  NE2      -19.5460   17.1530   15.9520 N.ar   80  HIS80      -0.2212
     56  N         -8.3220   20.9620   16.4690 N.3   122  VAL122     -0.1245
     57  CA        -9.3590   20.0550   16.9040 C.3   122  VAL122      0.1561
     58  C        -10.3450   19.7170   15.7490 C.2   122  VAL122      0.2260
     59  O        -11.4740   19.2680   15.9860 O.2   122  VAL122     -0.2867
     60  CB       -10.1240   20.6620   18.1470 C.3   122  VAL122      0.0252
     61  CG1       -9.1640   20.9650   19.2780 C.3   122  VAL122      0.0019
     62  CG2      -10.9280   21.9220   17.7720 C.3   122  VAL122      0.0019
     63  N         -6.7940   17.5460   19.1160 N.3   148  MET148     -0.1245
     64  CA        -7.8120   16.5020   19.2870 C.3   148  MET148      0.1570
     65  C         -7.8330   15.6540   17.9940 C.2   148  MET148      0.2261
     66  O         -8.0960   16.1690   16.9080 O.2   148  MET148     -0.2867
     67  CB        -9.1930   17.0910   19.5910 C.3   148  MET148      0.0387
     68  CG       -10.2600   16.0190   20.0300 C.3   148  MET148      0.0595
     69  SD       -10.8820   14.9630   18.7120 S.3   148  MET148     -0.1393
     70  CE       -10.5680   13.3080   19.3580 C.3   148  MET148      0.0692
     71  N        -13.3750    5.9120   15.3270 N.3   156  ASN156     -0.1225
     72  CA       -14.8280    6.0590   15.3050 C.3   156  ASN156      0.1785
     73  C        -15.3760    5.9450   13.9040 C.2   156  ASN156      0.2597
     74  O        -16.1300    5.0140   13.6160 O.2   156  ASN156     -0.2718
     75  CB       -15.3400    7.2900   16.0820 C.3   156  ASN156      0.1169
     76  CG       -14.6510    8.6070   15.7140 C.2   156  ASN156      0.2627
     77  OD1      -14.0530    8.8130   14.6170 O.2   156  ASN156     -0.2716
     78  ND2      -14.7700    9.5430   16.6410 N.am  156  ASN156     -0.0877
     79  N        -14.9130    6.8300   13.0230 N.am  157  PHE157     -0.1976
     80  CA       -15.3450    6.8380   11.6430 C.3   157  PHE157      0.1639
     81  C        -15.0950    5.5050   10.9440 C.2   157  PHE157      0.2290
     82  O        -15.9380    5.0490   10.1820 O.2   157  PHE157     -0.2864
     83  CB       -14.7300    8.0030   10.8740 C.3   157  PHE157      0.0560
     84  CG       -15.7020    8.6580    9.9430 C.ar  157  PHE157     -0.0200
     85  CD1      -16.6050    9.6130   10.4220 C.ar  157  PHE157     -0.0042
     86  CD2      -15.7520    8.2870    8.5810 C.ar  157  PHE157     -0.0042
     87  CE1      -17.5120   10.2110    9.5600 C.ar  157  PHE157     -0.0003
     88  CE2      -16.6660    8.8810    7.7010 C.ar  157  PHE157     -0.0003
     89  CZ       -17.5590    9.8440    8.2020 C.ar  157  PHE157     -0.0000
     90  N         -9.8950    7.7180   13.6180 N.3   162  GLU162     -0.1231
     91  CA       -10.7060    8.7670   14.2220 C.3   162  GLU162      0.1699
     92  C        -10.9070    9.8080   13.1340 C.2   162  GLU162      0.2592
     93  O        -10.0420    9.9980   12.2930 O.2   162  GLU162     -0.2718
     94  CB        -9.9340    9.3250   15.4360 C.3   162  GLU162      0.0402
     95  CG       -10.4830   10.5540   16.1630 C.3   162  GLU162      0.1161
     96  CD       -10.2250   11.8460   15.4370 C.2   162  GLU162      0.3649
     97  OE1       -9.1680   11.9830   14.8150 O.co2 162  GLU162     -0.2457
     98  OE2      -11.0960   12.7330   15.4870 O.co2 162  GLU162     -0.2457
     99  N        -12.0350   10.4990   13.1850 N.am  163  PHE163     -0.1962
    100  CA       -12.5230   11.3570   12.0880 C.3   163  PHE163      0.1771
    101  C        -11.5450   12.4380   11.6140 C.2   163  PHE163      0.2619
    102  O        -11.3010   12.5570   10.4260 O.2   163  PHE163     -0.2715
    103  CB       -13.9060   11.9760   12.4330 C.3   163  PHE163      0.0574
    104  CG       -14.3300   13.0240   11.4740 C.ar  163  PHE163     -0.0200
    105  CD1      -14.9460   12.6700   10.2770 C.ar  163  PHE163     -0.0042
    106  CD2      -14.0390   14.3880   11.7190 C.ar  163  PHE163     -0.0042
    107  CE1      -15.3190   13.6710    9.3400 C.ar  163  PHE163     -0.0003
    108  CE2      -14.3950   15.3620   10.8200 C.ar  163  PHE163     -0.0003
    109  CZ       -15.0470   15.0130    9.6260 C.ar  163  PHE163     -0.0000
    110  N        -11.0360   13.2470   12.5390 N.am  164  ASN164     -0.1972
    111  CA       -10.0700   14.2780   12.2160 C.3   164  ASN164      0.1688
    112  C         -8.8350   13.8380   11.4320 C.2   164  ASN164      0.2292
    113  O         -8.3690   14.5490   10.5710 O.2   164  ASN164     -0.2864
    114  CB        -9.6330   14.9790   13.4890 C.3   164  ASN164      0.1181
    115  CG       -10.7110   15.8560   14.0390 C.2   164  ASN164      0.2629
    116  OD1      -11.7290   16.0740   13.3930 O.2   164  ASN164     -0.2716
    117  ND2      -10.4960   16.3810   15.2150 N.am  164  ASN164     -0.0877
    118  N         -9.3580    9.4070   21.0290 N.3   187  LEU187     -0.1245
    119  CA       -10.6530    8.8600   21.4460 C.3   187  LEU187      0.1561
    120  C        -10.6100    8.0190   22.7120 C.2   187  LEU187      0.2260
    121  O        -11.6360    7.8830   23.4100 O.2   187  LEU187     -0.2867
    122  CB       -11.2990    8.0260   20.3280 C.3   187  LEU187      0.0270
    123  CG       -11.6210    8.7470   19.0240 C.3   187  LEU187      0.0019
    124  CD1      -12.1610    7.7380   18.0420 C.3   187  LEU187      0.0001
    125  CD2      -12.6110    9.8800   19.3070 C.3   187  LEU187      0.0001
    126  N        -24.5360   10.6330   18.8240 N.3   225  GLN225     -0.1245
    127  CA       -23.4390    9.8460   19.3570 C.3   225  GLN225      0.1566
    128  C        -23.9630    8.5450   19.9410 C.2   225  GLN225      0.2260
    129  O        -23.2410    7.5660   19.9660 O.2   225  GLN225     -0.2867
    130  CB       -22.6180   10.6250   20.3840 C.3   225  GLN225      0.0367
    131  CG       -22.0550   11.9100   19.8570 C.3   225  GLN225      0.0905
    132  CD       -20.6970   11.7350   19.1980 C.2   225  GLN225      0.2608
    133  OE1      -20.3210   10.6320   18.8070 O.2   225  GLN225     -0.2717
    134  NE2      -19.9400   12.8310   19.0970 N.am  225  GLN225     -0.0878
    135  N        -22.4590    5.2900   17.6360 N.3   229  TYR229     -0.1241
    136  CA       -21.3770    4.5830   18.3420 C.3   229  TYR229      0.1605
    137  C        -21.8030    3.8790   19.6200 C.2   229  TYR229      0.2264
    138  O        -20.9830    3.1840   20.2310 O.2   229  TYR229     -0.2867
    139  CB       -20.1980    5.5280   18.6460 C.3   229  TYR229      0.0534
    140  CG       -19.7510    6.3260   17.4420 C.ar  229  TYR229     -0.0201
    141  CD1      -19.7330    7.7270   17.4780 C.ar  229  TYR229     -0.0009
    142  CD2      -19.3670    5.6900   16.2590 C.ar  229  TYR229     -0.0009
    143  CE1      -19.3440    8.4640   16.3800 C.ar  229  TYR229      0.0417
    144  CE2      -18.9540    6.4310   15.1400 C.ar  229  TYR229      0.0417
    145  CZ       -18.9540    7.8220   15.2060 C.ar  229  TYR229      0.1957
    146  OH       -18.5660    8.5660   14.0910 O.3   229  TYR229     -0.2866
    147  N        -22.7220    5.5110   22.4020 N.3   231  LEU231     -0.1245
    148  CA       -22.2300    6.2830   23.5670 C.3   231  LEU231      0.1561
    149  C        -23.3710    6.7920   24.4900 C.2   231  LEU231      0.2260
    150  O        -24.4910    7.0210   24.0220 O.2   231  LEU231     -0.2867
    151  CB       -21.3120    7.4180   23.0880 C.3   231  LEU231      0.0270
    152  CG       -19.9640    6.9130   22.5220 C.3   231  LEU231      0.0019
    153  CD1      -19.1570    7.9920   21.8490 C.3   231  LEU231      0.0001
    154  CD2      -19.0780    6.2420   23.5910 C.3   231  LEU231      0.0001
    155  N        -15.1470   16.0330   23.0290 N.3   237  HIS237     -0.1226
    156  CA       -13.7410   15.7140   22.6480 C.3   237  HIS237      0.1752
    157  C        -12.8150   16.9420   22.6840 C.2   237  HIS237      0.2596
    158  O        -11.7230   16.9160   23.2780 O.2   237  HIS237     -0.2718
    159  CB       -13.6550   15.0910   21.2260 C.3   237  HIS237      0.0759
    160  CG       -14.5950   13.9540   20.9520 C.ar  237  HIS237      0.0818
    161  ND1      -14.2940   12.6430   21.2640 N.ar  237  HIS237     -0.2268
    162  CD2      -15.7990   13.9250   20.3310 C.ar  237  HIS237      0.1154
    163  CE1      -15.2820   11.8600   20.8760 C.ar  237  HIS237      0.1986
    164  NE2      -16.2080   12.6160   20.3020 N.ar  237  HIS237     -0.2212
    165  N        -13.2410   18.0280   22.0340 N.am  238  ASP238     -0.1974
    166  CA       -12.3160   19.1340   21.7100 C.3   238  ASP238      0.1709
    167  C        -12.0010   20.0220   22.9010 C.2   238  ASP238      0.2293
    168  O        -10.9350   20.6380   22.9640 O.2   238  ASP238     -0.2864
    169  CB       -12.8390   19.9780   20.5350 C.3   238  ASP238      0.1436
    170  CG       -13.0320   19.1590   19.2630 C.2   238  ASP238      0.3671
    171  OD1      -12.3630   18.1270   19.1340 O.co2 238  ASP238     -0.2456
    172  OD2      -13.8440   19.5290   18.3920 O.co2 238  ASP238     -0.2456
@<TRIPOS>BOND
     1    88    89   ar
     2    88    86   ar
     3    89    87   ar
     4    33    34    1
     5    86    84   ar
     6    28    27    2
     7    27    26    1
     8    34    35    1
     9    34    37    1
    10   107   109   ar
    11   107   105   ar
    12    35    36    2
    13    87    85   ar
    14   109   108   ar
    15    25    26    1
    16    84    85   ar
    17    84    83    1
    18    82    81    2
    19   105   104   ar
    20    26    29    1
    21   102   101    2
    22   113   112    2
    23   108   106   ar
    24    83    80    1
    25    81    80    1
    26   112   111    1
    27   104   106   ar
    28   104   103    1
    29     5     2    1
    30     5     6    1
    31   101   100    1
    32   101   110   am
    33    29    30    1
    34    80    79    1
    35     8     6   ar
    36   100   103    1
    37   100    99    1
    38   111   110    1
    39   111   114    1
    40    93    92    2
    41     2     3    1
    42     2     1    1
    43     6     7   ar
    44    38    39    1
    45    48    49    2
    46    48    47    1
    47     4     3    2
    48    30    32   am
    49    30    31    2
    50    79    73   am
    51    92    99   am
    52    92    91    1
    53    50    47    1
    54    50    51    1
    55    46    47    1
    56    46    40   am
    57   116   115    2
    58   114   115    1
    59    74    73    2
    60    90    91    1
    61    39    40    1
    62    39    42    1
    63    73    72    1
    64    52    51   ar
    65    52    54   ar
    66   115   117   am
    67   146   145    1
    68    43    42    1
    69    43    45    1
    70    40    41    2
    71    51    53   ar
    72    91    94    1
    73    42    44    1
    74    77    76    2
    75    97    96   ar
    76    54    55   ar
    77   144   145   ar
    78   144   142   ar
    79   145   143   ar
    80    72    71    1
    81    72    75    1
    82    94    95    1
    83    96    98   ar
    84    96    95    1
    85    53    55   ar
    86    76    75    1
    87    76    78   am
    88    58    59    2
    89    58    57    1
    90   142   140   ar
    91    23    22   ar
    92    24    22   ar
    93   143   141   ar
    94    56    57    1
    95    22    21    1
    96    57    60    1
    97    66    65    2
    98    21    18    1
    99   140   141   ar
   100   140   139    1
   101   135   136    1
   102    62    60    1
   103    65    64    1
   104   124   123    1
   105    60    61    1
   106   136   139    1
   107   136   137    1
   108   172   170   ar
   109    69    70    1
   110    69    68    1
   111   133   132    2
   112   126   127    1
   113    15    14   ar
   114    18    17    1
   115    18    19    1
   116   123   125    1
   117   123   122    1
   118   134   132   am
   119    63    64    1
   120   171   170   ar
   121   132   131    1
   122    17    11   am
   123   170   169    1
   124    64    67    1
   125   127   128    1
   126   127   130    1
   127    19    20    2
   128    67    68    1
   129   137   138    2
   130     9    10    1
   131   131   130    1
   132    14    16   ar
   133    14    13    1
   134   128   129    2
   135   164   162   ar
   136   164   163   ar
   137   122   119    1
   138   162   160   ar
   139    11    10    1
   140    11    12    2
   141   169   166    1
   142    10    13    1
   143   163   161   ar
   144   160   159    1
   145   160   161   ar
   146   118   119    1
   147   159   156    1
   148   119   120    1
   149   166   165    1
   150   166   167    1
   151   153   152    1
   152   165   157   am
   153   147   148    1
   154   152   151    1
   155   152   154    1
   156   156   157    1
   157   156   155    1
   158   157   158    2
   159   120   121    2
   160   167   168    2
   161   151   148    1
   162   148   149    1
   163   150   149    2
