@<TRIPOS>MOLECULE
tmp/3b9xC00.pdb
 132 125 0 0 0
SMALL
GASTEIGER

@<TRIPOS>ATOM
      1  N          3.7060  -24.4810   16.4650 N.3     9  ASP9       -0.1239
      2  CA         5.1380  -24.1810   16.2070 C.3     9  ASP9        0.1674
      3  C          5.9660  -24.1810   17.5020 C.2     9  ASP9        0.2266
      4  O          6.5680  -23.1350   17.8620 O.2     9  ASP9       -0.2867
      5  CB         5.2770  -22.8180   15.5130 C.3     9  ASP9        0.1410
      6  CG         4.6640  -21.6690   16.3230 C.2     9  ASP9        0.3668
      7  OD1        3.7170  -21.9270   17.1160 O.co2   9  ASP9       -0.2456
      8  OD2        5.1350  -20.5040   16.2030 O.co2   9  ASP9       -0.2456
      9  N          4.3620  -22.1980   24.9870 N.3    13  ASP13      -0.1225
     10  CA         2.9290  -22.3430   25.2590 C.3    13  ASP13       0.1805
     11  C          2.2690  -23.3210   24.3150 C.2    13  ASP13       0.2597
     12  O          1.2410  -23.8860   24.6490 O.2    13  ASP13      -0.2718
     13  CB         2.1750  -20.9870   25.3240 C.3    13  ASP13       0.1424
     14  CG         2.4040  -20.1260   24.1090 C.2    13  ASP13       0.3668
     15  OD1        3.5760  -19.9630   23.7070 O.co2  13  ASP13      -0.2456
     16  OD2        1.3940  -19.6260   23.5550 O.co2  13  ASP13      -0.2456
     17  N          2.8630  -23.5370   23.1370 N.am   14  ASP14      -0.1974
     18  CA         2.4140  -24.6050   22.2670 C.3    14  ASP14       0.1709
     19  C          2.5570  -25.9200   23.0050 C.2    14  ASP14       0.2293
     20  O          1.6790  -26.7820   22.9370 O.2    14  ASP14      -0.2864
     21  CB         3.2340  -24.7020   20.9980 C.3    14  ASP14       0.1436
     22  CG         3.2400  -23.4240   20.1880 C.2    14  ASP14       0.3671
     23  OD1        2.4640  -23.3660   19.1890 O.co2  14  ASP14      -0.2456
     24  OD2        4.0410  -22.5070   20.5220 O.co2  14  ASP14      -0.2456
     25  N          7.8910  -19.6370   15.7370 N.3    38  ASN38      -0.1240
     26  CA         8.7720  -19.4040   16.8990 C.3    38  ASN38       0.1653
     27  C         10.2570  -19.6630   16.5530 C.2    38  ASN38       0.2266
     28  O         11.1520  -18.8760   16.9120 O.2    38  ASN38      -0.2867
     29  CB         8.3360  -20.2680   18.0890 C.3    38  ASN38       0.1155
     30  CG         7.1270  -19.6820   18.8600 C.2    38  ASN38       0.2627
     31  OD1        6.2950  -20.4410   19.4010 O.2    38  ASN38      -0.2716
     32  ND2        7.0390  -18.3410   18.9340 N.am   38  ASN38      -0.0877
     33  N         10.9750  -15.9150   16.4770 N.3    76  ALA76      -0.1245
     34  CA        10.7490  -15.2720   17.7920 C.3    76  ALA76       0.1562
     35  C         12.0070  -14.5830   18.3640 C.2    76  ALA76       0.2260
     36  O         12.7770  -15.1610   19.1520 O.2    76  ALA76      -0.2867
     37  CB        10.1860  -16.2770   18.7890 C.3    76  ALA76       0.0290
     38  N         -2.2460  -22.4500   16.2050 N.3   116  VAL116     -0.1245
     39  CA        -1.6690  -21.6400   17.2440 C.3   116  VAL116      0.1561
     40  C         -0.2290  -21.2100   16.9300 C.2   116  VAL116      0.2260
     41  O          0.5430  -20.8970   17.8550 O.2   116  VAL116     -0.2867
     42  CB        -1.7920  -22.3490   18.6750 C.3   116  VAL116      0.0252
     43  CG1       -3.2270  -22.7140   18.9410 C.3   116  VAL116      0.0019
     44  CG2       -0.8560  -23.5750   18.8340 C.3   116  VAL116      0.0019
     45  N         -5.1710  -19.1630   17.8040 N.3   142  MET142     -0.1245
     46  CA        -4.4630  -18.1390   18.6260 C.3   142  MET142      0.1570
     47  C         -3.7340  -17.1680   17.6670 C.2   142  MET142      0.2261
     48  O         -2.8840  -17.5780   16.8580 O.2   142  MET142     -0.2867
     49  CB        -3.4860  -18.7600   19.6350 C.3   142  MET142      0.0387
     50  CG        -2.9340  -17.7690   20.6870 C.3   142  MET142      0.0595
     51  SD        -1.6220  -16.6640   20.1160 S.3   142  MET142     -0.1393
     52  CE        -2.3200  -15.0610   20.6310 C.3   142  MET142      0.0692
     53  N          2.0880   -7.4750   19.6850 N.3   150  ASN150     -0.1225
     54  CA         3.3040   -7.6680   20.4730 C.3   150  ASN150      0.1785
     55  C          4.5810   -7.4450   19.6700 C.2   150  ASN150      0.2597
     56  O          5.4030   -6.5970   20.0460 O.2   150  ASN150     -0.2718
     57  CB         3.2770   -8.9820   21.2880 C.3   150  ASN150      0.1169
     58  CG         2.9470  -10.2280   20.4570 C.2   150  ASN150      0.2627
     59  OD1        3.0990  -10.2830   19.2170 O.2   150  ASN150     -0.2716
     60  ND2        2.5180  -11.2840   21.1780 N.am  150  ASN150     -0.0877
     61  N          4.7120   -8.1480   18.5480 N.am  151  PHE151     -0.1976
     62  CA         5.8930   -8.0670   17.7000 C.3   151  PHE151      0.1639
     63  C          6.0350   -6.6660   17.1230 C.2   151  PHE151      0.2290
     64  O          7.1640   -6.1020   17.0300 O.2   151  PHE151     -0.2864
     65  CB         5.8750   -9.1280   16.5910 C.3   151  PHE151      0.0560
     66  CG         7.2130   -9.7280   16.3250 C.ar  151  PHE151     -0.0200
     67  CD1        7.6850  -10.7740   17.1110 C.ar  151  PHE151     -0.0042
     68  CD2        8.0310   -9.2160   15.3250 C.ar  151  PHE151     -0.0042
     69  CE1        8.9160  -11.3260   16.8880 C.ar  151  PHE151     -0.0003
     70  CE2        9.2880   -9.7610   15.0980 C.ar  151  PHE151     -0.0003
     71  CZ         9.7240  -10.8210   15.8830 C.ar  151  PHE151     -0.0000
     72  N          0.3190   -9.0070   16.0590 N.3   156  GLU156     -0.1231
     73  CA         0.6390  -10.1510   16.9090 C.3   156  GLU156      0.1699
     74  C          1.5150  -11.0950   16.0820 C.2   156  GLU156      0.2592
     75  O          1.3950  -11.1480   14.8510 O.2   156  GLU156     -0.2718
     76  CB        -0.6850  -10.8220   17.3120 C.3   156  GLU156      0.0402
     77  CG        -0.5990  -12.0980   18.1310 C.3   156  GLU156      0.1161
     78  CD        -0.3640  -13.3200   17.2740 C.2   156  GLU156      0.3649
     79  OE1       -0.9590  -13.3780   16.1710 O.co2 156  GLU156     -0.2457
     80  OE2        0.4050  -14.2310   17.6800 O.co2 156  GLU156     -0.2457
     81  N          2.4330  -11.8070   16.7430 N.am  157  PHE157     -0.1962
     82  CA         3.4660  -12.5770   16.0420 C.3   157  PHE157      0.1771
     83  C          2.9690  -13.5830   14.9840 C.2   157  PHE157      0.2619
     84  O          3.4930  -13.6210   13.8690 O.2   157  PHE157     -0.2715
     85  CB         4.3660  -13.2860   17.0640 C.3   157  PHE157      0.0574
     86  CG         5.3170  -14.2770   16.4490 C.ar  157  PHE157     -0.0200
     87  CD1        6.5570  -13.8670   15.9760 C.ar  157  PHE157     -0.0042
     88  CD2        4.9590  -15.6240   16.3360 C.ar  157  PHE157     -0.0042
     89  CE1        7.4420  -14.7820   15.3800 C.ar  157  PHE157     -0.0003
     90  CE2        5.8190  -16.5510   15.7590 C.ar  157  PHE157     -0.0003
     91  CZ         7.0690  -16.1260   15.2660 C.ar  157  PHE157     -0.0000
     92  N          1.9970  -14.4210   15.3370 N.am  158  ASN158     -0.1972
     93  CA         1.4700  -15.3950   14.4030 C.3   158  ASN158      0.1688
     94  C          0.9050  -14.8090   13.1160 C.2   158  ASN158      0.2292
     95  O          1.0360  -15.4210   12.0500 O.2   158  ASN158     -0.2864
     96  CB         0.3940  -16.2590   15.0740 C.3   158  ASN158      0.1181
     97  CG         0.9710  -17.1860   16.1670 C.2   158  ASN158      0.2629
     98  OD1        2.1920  -17.3080   16.3140 O.2   158  ASN158     -0.2716
     99  ND2        0.0990  -17.8090   16.9370 N.am  158  ASN158     -0.0877
    100  N         -4.3040  -11.3760   21.6210 N.3   181  LEU181     -0.1245
    101  CA        -3.5460  -10.8840   22.7710 C.3   181  LEU181      0.1561
    102  C         -4.3870  -10.1490   23.8490 C.2   181  LEU181      0.2260
    103  O         -4.0310  -10.1210   25.0400 O.2   181  LEU181     -0.2867
    104  CB        -2.3980   -9.9730   22.3000 C.3   181  LEU181      0.0270
    105  CG        -1.3760  -10.5800   21.3540 C.3   181  LEU181      0.0019
    106  CD1       -0.4020   -9.5460   20.9930 C.3   181  LEU181      0.0001
    107  CD2       -0.6540  -11.7510   21.9700 C.3   181  LEU181      0.0001
    108  N          2.9090  -15.2940   29.6680 N.3   211  PRO211     -0.2116
    109  CA         1.4860  -15.6750   29.4780 C.3   211  PRO211      0.1372
    110  C          1.3950  -16.9410   28.6590 C.2   211  PRO211      0.2244
    111  O          2.3850  -17.3490   28.0370 O.2   211  PRO211     -0.2868
    112  CB         0.8750  -14.4930   28.7000 C.3   211  PRO211      0.0268
    113  CG         1.9260  -13.3880   28.7200 C.3   211  PRO211      0.0207
    114  CD         3.2750  -14.1040   28.8750 C.3   211  PRO211      0.0892
    115  N         -0.5590  -18.3140   25.8090 N.3   213  HIS213     -0.1226
    116  CA        -1.5250  -17.9200   24.8230 C.3   213  HIS213      0.1752
    117  C         -2.3230  -19.0960   24.2620 C.2   213  HIS213      0.2596
    118  O         -3.5550  -19.1200   24.3250 O.2   213  HIS213     -0.2718
    119  CB        -0.7770  -17.1810   23.7200 C.3   213  HIS213      0.0759
    120  CG         0.0740  -16.0470   24.2090 C.ar  213  HIS213      0.0818
    121  ND1       -0.4120  -14.7630   24.3840 N.ar  213  HIS213     -0.2268
    122  CD2        1.3880  -15.9980   24.5210 C.ar  213  HIS213      0.1154
    123  CE1        0.5710  -13.9720   24.7700 C.ar  213  HIS213      0.1986
    124  NE2        1.6750  -14.6950   24.8600 N.ar  213  HIS213     -0.2212
    125  N         -1.5880  -20.0710   23.7310 N.am  214  ASP214     -0.1974
    126  CA        -2.1370  -21.1300   22.8800 C.3   214  ASP214      0.1709
    127  C         -3.0320  -22.1210   23.6020 C.2   214  ASP214      0.2293
    128  O         -3.9980  -22.6400   23.0280 O.2   214  ASP214     -0.2864
    129  CB        -0.9930  -21.8620   22.2150 C.3   214  ASP214      0.1436
    130  CG        -0.1520  -20.9560   21.3400 C.2   214  ASP214      0.3671
    131  OD1       -0.6370  -19.8480   20.9630 O.co2 214  ASP214     -0.2456
    132  OD2        0.9810  -21.3710   21.0090 O.co2 214  ASP214     -0.2456
@<TRIPOS>BOND
     1    95    94    2
     2    94    93    1
     3    84    83    2
     4    93    96    1
     5    93    92    1
     6    75    74    2
     7    83    92   am
     8    83    82    1
     9    96    97    1
    10    70    68   ar
    11    70    71   ar
    12    91    89   ar
    13    91    90   ar
    14    68    66   ar
    15    89    87   ar
    16     5     2    1
    17     5     6    1
    18    25    26    1
    19    90    88   ar
    20    71    69   ar
    21    87    86   ar
    22    82    81    1
    23    82    85    1
    24    72    73    1
    25    74    81   am
    26    74    73    1
    27    97    98    2
    28    97    99   am
    29    79    78   ar
    30     8     6   ar
    31    38    39    1
    32     2     1    1
    33     2     3    1
    34     6     7   ar
    35    66    65    1
    36    66    67   ar
    37    88    86   ar
    38    86    85    1
    39    33    34    1
    40    27    26    1
    41    27    28    2
    42    65    62    1
    43    48    47    2
    44    69    67   ar
    45    26    29    1
    46    73    76    1
    47    40    39    1
    48    40    41    2
    49    64    63    2
    50    63    62    1
    51    39    42    1
    52    78    80   ar
    53    78    77    1
    54    76    77    1
    55     3     4    2
    56    47    46    1
    57    62    61    1
    58    34    35    1
    59    34    37    1
    60    45    46    1
    61    29    30    1
    62    35    36    2
    63    61    55   am
    64    46    49    1
    65    42    44    1
    66    42    43    1
    67    30    32   am
    68    30    31    2
    69    23    22   ar
    70    59    58    2
    71    49    50    1
    72    55    56    2
    73    55    54    1
    74    53    54    1
    75    51    52    1
    76    51    50    1
    77    22    24   ar
    78    22    21    1
    79    58    60   am
    80    58    57    1
    81    54    57    1
    82   131   130   ar
    83   106   105    1
    84    21    18    1
    85   132   130   ar
    86   130   129    1
    87   105   107    1
    88   105   104    1
    89   100   101    1
    90   129   126    1
    91    18    19    1
    92    18    17    1
    93   104   101    1
    94   101   102    1
    95   126   127    1
    96   126   125    1
    97    20    19    2
    98   128   127    2
    99    17    11   am
   100    16    14   ar
   101    15    14   ar
   102   119   120    1
   103   119   116    1
   104   125   117   am
   105   102   103    2
   106    14    13    1
   107   120   121   ar
   108   120   122   ar
   109   117   118    2
   110   117   116    1
   111    11    12    2
   112    11    10    1
   113   121   123   ar
   114   122   124   ar
   115   123   124   ar
   116   116   115    1
   117     9    10    1
   118    10    13    1
   119   111   110    2
   120   110   109    1
   121   112   113    1
   122   112   109    1
   123   113   114    1
   124   114   108    1
   125   109   108    1
