@<TRIPOS>MOLECULE
tmp/3ba2A00.pdb
 218 209 0 0 0
SMALL
GASTEIGER

@<TRIPOS>ATOM
      1  N        -13.7840   -4.1840   20.1820 N.3    32  LEU32      -0.1231
      2  CA       -13.2210   -3.4910   19.0060 C.3    32  LEU32       0.1693
      3  C        -11.7700   -3.0270   19.2310 C.2    32  LEU32       0.2592
      4  O        -10.8640   -3.3070   18.4110 O.2    32  LEU32      -0.2718
      5  CB       -14.0680   -2.2510   18.6570 C.3    32  LEU32       0.0284
      6  CG       -13.5570   -1.3290   17.5440 C.3    32  LEU32       0.0019
      7  CD1      -13.5990   -2.0450   16.1490 C.3    32  LEU32       0.0001
      8  CD2      -14.4300   -0.1050   17.4800 C.3    32  LEU32       0.0001
      9  N        -11.5670   -2.3170   20.3470 N.am   33  PHE33      -0.1976
     10  CA       -10.2790   -1.6830   20.6280 C.3    33  PHE33       0.1639
     11  C         -9.1950   -2.7240   20.9470 C.2    33  PHE33       0.2290
     12  O         -8.0200   -2.5300   20.6000 O.2    33  PHE33      -0.2864
     13  CB       -10.4000   -0.6850   21.7750 C.3    33  PHE33       0.0560
     14  CG       -11.2150    0.5260   21.4680 C.ar   33  PHE33      -0.0200
     15  CD1      -11.3650    1.0200   20.1530 C.ar   33  PHE33      -0.0042
     16  CD2      -11.8140    1.2160   22.5170 C.ar   33  PHE33      -0.0042
     17  CE1      -12.0890    2.1850   19.9120 C.ar   33  PHE33      -0.0003
     18  CE2      -12.5580    2.3720   22.2820 C.ar   33  PHE33      -0.0003
     19  CZ       -12.6800    2.8600   20.9800 C.ar   33  PHE33      -0.0000
     20  N         -7.8890    0.8870   15.7270 N.3    39  THR39      -0.1218
     21  CA        -9.1480    1.6250   15.8400 C.3    39  THR39       0.1862
     22  C         -9.1190    2.6310   17.0290 C.2    39  THR39       0.2287
     23  O         -9.6480    3.7170   16.9310 O.2    39  THR39      -0.2866
     24  CB       -10.3690    0.6810   15.8920 C.3    39  THR39       0.1770
     25  OG1      -10.3670   -0.0640   17.1020 O.3    39  THR39      -0.2211
     26  CG2      -10.3870   -0.2580   14.6690 C.3    39  THR39       0.0375
     27  N         -8.0050    6.4070   16.5630 N.3    42  LYS42      -0.1231
     28  CA        -8.9450    7.3770   15.9910 C.3    42  LYS42       0.1693
     29  C         -9.6690    8.1740   17.0710 C.2    42  LYS42       0.2592
     30  O        -10.3320    9.1820   16.7800 O.2    42  LYS42      -0.2718
     31  CB        -9.9590    6.6700   15.0760 C.3    42  LYS42       0.0285
     32  CG        -9.3380    6.1370   13.8090 C.3    42  LYS42       0.0035
     33  CD        -8.8610    7.2650   12.8580 C.3    42  LYS42       0.0206
     34  CE        -7.8440    6.7660   11.8230 C.3    42  LYS42       0.1093
     35  NZ        -7.6140    7.7500   10.6970 N.3    42  LYS42      -0.1314
     36  N         -9.5720    7.7040   18.3170 N.am   43  PHE43      -0.1976
     37  CA       -10.1950    8.3970   19.4390 C.3    43  PHE43       0.1639
     38  C         -9.1490    8.9770   20.3440 C.2    43  PHE43       0.2290
     39  O         -8.5930    8.2780   21.2270 O.2    43  PHE43      -0.2864
     40  CB       -11.0520    7.4420   20.2740 C.3    43  PHE43       0.0560
     41  CG       -12.4020    7.1850   19.7020 C.ar   43  PHE43      -0.0200
     42  CD1      -12.6600    5.9920   19.0240 C.ar   43  PHE43      -0.0042
     43  CD2      -13.4130    8.1030   19.8730 C.ar   43  PHE43      -0.0042
     44  CE1      -13.9380    5.7400   18.4980 C.ar   43  PHE43      -0.0003
     45  CE2      -14.6930    7.8570   19.3640 C.ar   43  PHE43      -0.0003
     46  CZ       -14.9350    6.6820   18.6720 C.ar   43  PHE43      -0.0000
     47  N        -19.7160    6.8730   25.9030 N.3    64  HIS64      -0.1241
     48  CA       -19.5980    6.8180   24.4510 C.3    64  HIS64       0.1621
     49  C        -20.2040    5.5560   23.8300 C.2    64  HIS64       0.2264
     50  O        -20.8160    5.6140   22.7620 O.2    64  HIS64      -0.2867
     51  CB       -18.1770    6.9820   23.9830 C.3    64  HIS64       0.0745
     52  CG       -18.1090    7.2050   22.5120 C.ar   64  HIS64       0.0817
     53  ND1      -18.4940    8.4040   21.9370 N.ar   64  HIS64      -0.2268
     54  CD2      -17.8720    6.3530   21.4910 C.ar   64  HIS64       0.1154
     55  CE1      -18.4150    8.3020   20.6230 C.ar   64  HIS64       0.1986
     56  NE2      -18.0310    7.0710   20.3270 N.ar   64  HIS64      -0.2212
     57  N        -23.7060    6.3580   23.4440 N.3    67  VAL67      -0.1231
     58  CA       -23.9080    7.2580   22.3100 C.3    67  VAL67       0.1692
     59  C        -23.9350    6.4850   20.9630 C.2    67  VAL67       0.2592
     60  O        -24.8810    6.6260   20.1450 O.2    67  VAL67      -0.2718
     61  CB       -22.8540    8.3620   22.2780 C.3    67  VAL67       0.0266
     62  CG1      -22.9900    9.1660   20.9700 C.3    67  VAL67       0.0020
     63  CG2      -23.0510    9.3090   23.5170 C.3    67  VAL67       0.0020
     64  N        -22.9170    5.6660   20.7510 N.am   68  VAL68      -0.1966
     65  CA       -22.7770    4.9970   19.4400 C.3    68  VAL68       0.1727
     66  C        -23.9010    3.9580   19.1900 C.2    68  VAL68       0.2616
     67  O        -24.5140    3.9140   18.0970 O.2    68  VAL68      -0.2715
     68  CB       -21.3530    4.4070   19.1860 C.3    68  VAL68       0.0290
     69  CG1      -20.9880    3.2650   20.1830 C.3    68  VAL68       0.0023
     70  CG2      -21.3190    3.9110   17.7130 C.3    68  VAL68       0.0023
     71  N        -24.1980    3.1420   20.2020 N.am   69  LEU69      -0.1977
     72  CA       -25.2630    2.1530   20.0160 C.3    69  LEU69       0.1596
     73  C        -26.6450    2.8070   19.9140 C.2    69  LEU69       0.2287
     74  O        -27.5210    2.2710   19.2490 O.2    69  LEU69      -0.2864
     75  CB       -25.2260    1.0830   21.1090 C.3    69  LEU69       0.0297
     76  CG       -23.9180    0.2900   21.1170 C.3    69  LEU69       0.0022
     77  CD1      -24.1080   -1.0170   21.9600 C.3    69  LEU69       0.0001
     78  CD2      -23.4390   -0.0270   19.6850 C.3    69  LEU69       0.0001
     79  N        -27.2170    5.7110   18.4860 N.3    71  ALA71      -0.1231
     80  CA       -27.2540    6.1710   17.0830 C.3    71  ALA71       0.1694
     81  C        -27.5460    4.9730   16.1390 C.2    71  ALA71       0.2591
     82  O        -28.3770    5.0550   15.2090 O.2    71  ALA71      -0.2718
     83  CB       -25.9150    6.8770   16.7130 C.3    71  ALA71       0.0304
     84  N        -26.9040    3.8490   16.4010 N.am   72  LEU72      -0.1980
     85  CA       -27.0840    2.7110   15.5210 C.3    72  LEU72       0.1596
     86  C        -28.5400    2.2130   15.6380 C.2    72  LEU72       0.2287
     87  O        -29.1240    1.8110   14.6610 O.2    72  LEU72      -0.2864
     88  CB       -26.1020    1.6040   15.8650 C.3    72  LEU72       0.0297
     89  CG       -26.2160    0.3180   15.0310 C.3    72  LEU72       0.0022
     90  CD1      -26.0360    0.5440   13.5280 C.3    72  LEU72       0.0001
     91  CD2      -25.1780   -0.6990   15.5560 C.3    72  LEU72       0.0001
     92  N        -30.8490    4.0610   13.4810 N.3    75  ILE75      -0.1245
     93  CA       -30.6300    3.6690   12.0860 C.3    75  ILE75       0.1561
     94  C        -31.3240    2.3300   11.7840 C.2    75  ILE75       0.2260
     95  O        -32.0580    2.1990   10.7900 O.2    75  ILE75      -0.2867
     96  CB       -29.1020    3.5970   11.7410 C.3    75  ILE75       0.0252
     97  CG1      -28.5290    5.0280   11.6810 C.3    75  ILE75       0.0019
     98  CG2      -28.8780    2.8580   10.3990 C.3    75  ILE75       0.0019
     99  CD1      -27.0270    5.0540   11.9000 C.3    75  ILE75       0.0001
    100  N        -30.0040   10.0880    8.1570 N.3    85  GLU85      -0.1245
    101  CA       -28.9250    9.7790    9.1270 C.3    85  GLU85       0.1567
    102  C        -27.5820    9.5010    8.4580 C.2    85  GLU85       0.2260
    103  O        -26.5210    9.9840    8.8830 O.2    85  GLU85      -0.2867
    104  CB       -29.2590    8.5200    9.9320 C.3    85  GLU85       0.0388
    105  CG       -30.3210    8.6710   10.9800 C.3    85  GLU85       0.1160
    106  CD       -31.7180    8.6710   10.4010 C.2    85  GLU85       0.3649
    107  OE1      -31.9270    8.2650    9.2120 O.co2  85  GLU85      -0.2457
    108  OE2      -32.6250    9.0730   11.1530 O.co2  85  GLU85      -0.2457
    109  N        -25.0210   12.6320    6.7350 N.3    88  PRO88      -0.2102
    110  CA       -24.1140   13.3340    7.6460 C.3    88  PRO88       0.1504
    111  C        -23.1550   12.4360    8.4450 C.2    88  PRO88       0.2575
    112  O        -22.0540   12.8690    8.7760 O.2    88  PRO88      -0.2718
    113  CB       -25.0800   14.0800    8.6000 C.3    88  PRO88       0.0282
    114  CG       -26.3240   13.2800    8.5610 C.3    88  PRO88       0.0208
    115  CD       -26.4270   12.7650    7.1570 C.3    88  PRO88       0.0893
    116  N        -23.5700   11.2050    8.7650 N.am   89  LEU89      -0.1980
    117  CA       -22.6810   10.2520    9.4300 C.3    89  LEU89       0.1596
    118  C        -21.4910    9.8930    8.5220 C.2    89  LEU89       0.2287
    119  O        -20.3710    9.7940    8.9690 O.2    89  LEU89      -0.2864
    120  CB       -23.4440    8.9920    9.8370 C.3    89  LEU89       0.0297
    121  CG       -24.1330    9.0250   11.2120 C.3    89  LEU89       0.0022
    122  CD1      -25.0570    7.8100   11.3710 C.3    89  LEU89       0.0001
    123  CD2      -23.1680    9.0750   12.3510 C.3    89  LEU89       0.0001
    124  N        -19.1150   13.0050    8.2800 N.3    92  SER92      -0.1202
    125  CA       -18.3210   13.1370    9.4880 C.3    92  SER92       0.2020
    126  C        -17.2370   12.0480    9.6500 C.2    92  SER92       0.2618
    127  O        -16.0970   12.3670    9.9950 O.2    92  SER92      -0.2717
    128  CB       -19.2380   13.2490   10.7120 C.3    92  SER92       0.2103
    129  OG       -19.7200   11.9860   11.1350 O.3    92  SER92      -0.2182
    130  N        -17.5730   10.7830    9.3910 N.am   93  HIS93      -0.1975
    131  CA       -16.6000    9.7120    9.5080 C.3    93  HIS93       0.1656
    132  C        -15.5390    9.7560    8.4190 C.2    93  HIS93       0.2291
    133  O        -14.4220    9.3940    8.6710 O.2    93  HIS93      -0.2864
    134  CB       -17.2730    8.3350    9.5970 C.3    93  HIS93       0.0771
    135  CG       -17.9280    8.0930   10.9270 C.ar   93  HIS93       0.0820
    136  ND1      -19.1620    8.6100   11.2430 N.ar   93  HIS93      -0.2267
    137  CD2      -17.4880    7.4600   12.0390 C.ar   93  HIS93       0.1154
    138  CE1      -19.4750    8.2690   12.4780 C.ar   93  HIS93       0.1986
    139  NE2      -18.4660    7.5940   12.9910 N.ar   93  HIS93      -0.2212
    140  N        -13.4010   12.4610   11.0140 N.3    97  HIS97      -0.1241
    141  CA       -12.7680   11.4370   11.8380 C.3    97  HIS97       0.1621
    142  C        -11.8110   10.5200   11.0630 C.2    97  HIS97       0.2264
    143  O        -10.9970    9.7980   11.6710 O.2    97  HIS97      -0.2867
    144  CB       -13.8610   10.6340   12.5850 C.3    97  HIS97       0.0745
    145  CG       -14.9280   11.5060   13.1940 C.ar   97  HIS97       0.0817
    146  ND1      -14.6410   12.5180   14.0890 N.ar   97  HIS97      -0.2268
    147  CD2      -16.2710   11.5340   13.0170 C.ar   97  HIS97       0.1154
    148  CE1      -15.7600   13.1310   14.4350 C.ar   97  HIS97       0.1986
    149  NE2      -16.7660   12.5550   13.8010 N.ar   97  HIS97      -0.2212
    150  N        -12.2360    7.6560    9.0970 N.3    99  ILE99      -0.1245
    151  CA       -12.4540    6.2720    9.4980 C.3    99  ILE99       0.1561
    152  C        -12.5590    5.3700    8.2820 C.2    99  ILE99       0.2260
    153  O        -13.5570    5.4620    7.5430 O.2    99  ILE99      -0.2867
    154  CB       -13.7760    6.1170   10.3420 C.3    99  ILE99       0.0252
    155  CG1      -13.7840    7.0880   11.5440 C.3    99  ILE99       0.0019
    156  CG2      -13.9600    4.6580   10.7850 C.3    99  ILE99       0.0019
    157  CD1      -12.5190    7.0260   12.4060 C.3    99  ILE99       0.0001
    158  N        -12.9070   -0.2930    9.3160 N.3   103  TYR103     -0.1227
    159  CA       -13.1640   -0.1770   10.7540 C.3   103  TYR103      0.1736
    160  C        -14.6640   -0.3550   11.0550 C.2   103  TYR103      0.2595
    161  O        -15.0310   -0.8280   12.1280 O.2   103  TYR103     -0.2718
    162  CB       -12.7370    1.2020   11.2990 C.3   103  TYR103      0.0548
    163  CG       -11.2360    1.4900   11.3620 C.ar  103  TYR103     -0.0200
    164  CD1      -10.2980    0.7390   10.6390 C.ar  103  TYR103     -0.0009
    165  CD2      -10.7830    2.5450   12.1360 C.ar  103  TYR103     -0.0009
    166  CE1       -8.9370    1.0490   10.6930 C.ar  103  TYR103      0.0417
    167  CE2       -9.4400    2.8510   12.2210 C.ar  103  TYR103      0.0417
    168  CZ        -8.5210    2.1010   11.5060 C.ar  103  TYR103      0.1957
    169  OH        -7.1870    2.4560   11.6190 O.3   103  TYR103     -0.2866
    170  N        -15.5210    0.0700   10.1210 N.am  104  LEU104     -0.1980
    171  CA       -16.9660   -0.1610   10.2590 C.3   104  LEU104      0.1596
    172  C        -17.2490   -1.6490   10.2050 C.2   104  LEU104      0.2287
    173  O        -18.1030   -2.1660   10.9280 O.2   104  LEU104     -0.2864
    174  CB       -17.7670    0.5800    9.1980 C.3   104  LEU104      0.0297
    175  CG       -17.5820    2.1010    9.0490 C.3   104  LEU104      0.0022
    176  CD1      -18.6830    2.5590    8.0490 C.3   104  LEU104      0.0001
    177  CD2      -17.6710    2.8390   10.3600 C.3   104  LEU104      0.0001
    178  N        -16.2370   -2.9640   13.7700 N.3   107  ILE107     -0.1231
    179  CA       -17.2160   -2.7270   14.8500 C.3   107  ILE107      0.1692
    180  C        -18.4790   -3.5730   14.6210 C.2   107  ILE107      0.2592
    181  O        -19.1090   -4.0030   15.5690 O.2   107  ILE107     -0.2718
    182  CB       -17.5550   -1.2240   15.0780 C.3   107  ILE107      0.0266
    183  CG1      -18.1880   -1.0400   16.4830 C.3   107  ILE107      0.0019
    184  CG2      -18.4550   -0.6660   13.9370 C.3   107  ILE107      0.0020
    185  CD1      -18.2870    0.3860   16.9160 C.3   107  ILE107      0.0001
    186  N        -18.7960   -3.8560   13.3580 N.am  108  SER108     -0.1952
    187  CA       -19.9670   -4.7080   13.0360 C.3   108  SER108      0.1924
    188  C        -19.7230   -6.1030   13.5770 C.2   108  SER108      0.2314
    189  O        -20.5750   -6.7020   14.2090 O.2   108  SER108     -0.2863
    190  CB       -20.2030   -4.7000   11.5210 C.3   108  SER108      0.2116
    191  OG       -20.6670   -3.3860   11.1450 O.3   108  SER108     -0.2180
    192  N        -20.0840   -6.0310   17.3400 N.3   111  ILE111     -0.1245
    193  CA       -21.5190   -6.0030   17.7170 C.3   111  ILE111      0.1561
    194  C        -22.1120   -7.4150   17.6620 C.2   111  ILE111      0.2260
    195  O        -22.7620   -7.8650   18.6010 O.2   111  ILE111     -0.2867
    196  CB       -22.2760   -5.0120   16.8260 C.3   111  ILE111      0.0252
    197  CG1      -21.8510   -3.5780   17.1890 C.3   111  ILE111      0.0019
    198  CG2      -23.8320   -5.1860   16.9680 C.3   111  ILE111      0.0019
    199  CD1      -22.1660   -2.5610   16.1050 C.3   111  ILE111      0.0001
    200  N        -26.1920   -4.5420    9.1160 N.3   135  LEU135     -0.1245
    201  CA       -24.9470   -3.7810    9.3160 C.3   135  LEU135      0.1561
    202  C        -24.2000   -3.6060    7.9920 C.2   135  LEU135      0.2260
    203  O        -23.6660   -2.5190    7.7190 O.2   135  LEU135     -0.2867
    204  CB       -24.0520   -4.4540   10.3730 C.3   135  LEU135      0.0270
    205  CG       -24.7460   -4.5770   11.7600 C.3   135  LEU135      0.0019
    206  CD1      -23.9020   -5.3560   12.7660 C.3   135  LEU135      0.0001
    207  CD2      -25.1810   -3.2210   12.3290 C.3   135  LEU135      0.0001
    208  N        -25.9050   -0.7860    5.9420 N.3   138  PHE138     -0.1241
    209  CA       -25.4530    0.4790    6.4850 C.3   138  PHE138      0.1605
    210  C        -24.0430    0.8170    5.9410 C.2   138  PHE138      0.2264
    211  O        -23.8350    1.8900    5.3510 O.2   138  PHE138     -0.2867
    212  CB       -25.4710    0.3940    8.0330 C.3   138  PHE138      0.0534
    213  CG       -24.8550    1.6060    8.7120 C.ar  138  PHE138     -0.0203
    214  CD1      -25.4050    2.8700    8.5280 C.ar  138  PHE138     -0.0042
    215  CD2      -23.7070    1.4760    9.5050 C.ar  138  PHE138     -0.0042
    216  CE1      -24.8330    4.0080    9.1420 C.ar  138  PHE138     -0.0003
    217  CE2      -23.1260    2.6020   10.1290 C.ar  138  PHE138     -0.0003
    218  CZ       -23.7060    3.8750    9.9340 C.ar  138  PHE138     -0.0000
@<TRIPOS>BOND
     1   211   210    2
     2   210   209    1
     3   208   209    1
     4   209   212    1
     5   109   115    1
     6   109   110    1
     7   115   114    1
     8   153   152    2
     9   110   111    1
    10   110   113    1
    11   203   202    2
    12   202   201    1
    13   212   213    1
    14   176   175    1
    15   100   101    1
    16   124   125    1
    17   152   151    1
    18   132   133    2
    19   132   131    1
    20   111   116   am
    21   111   112    2
    22   102   103    2
    23   102   101    1
    24   118   119    2
    25   118   117    1
    26   214   213   ar
    27   214   216   ar
    28   114   113    1
    29   213   215   ar
    30   116   117    1
    31   175   174    1
    32   175   177    1
    33   150   151    1
    34   200   201    1
    35   101   104    1
    36   216   218   ar
    37   174   171    1
    38   107   106   ar
    39   201   204    1
    40   158   159    1
    41   130   131    1
    42   130   126   am
    43   117   120    1
    44   125   126    1
    45   125   128    1
    46   151   154    1
    47   215   217   ar
    48   131   134    1
    49   134   135    1
    50   126   127    2
    51   120   121    1
    52   104   105    1
    53   218   217   ar
    54   170   171    1
    55   170   160   am
    56   172   171    1
    57   172   173    2
    58   154   156    1
    59   154   155    1
    60   204   205    1
    61    98    96    1
    62   106   105    1
    63   106   108   ar
    64   164   166   ar
    65   164   163   ar
    66   166   168   ar
    67    35    34    1
    68   128   129    1
    69   159   160    1
    70   159   162    1
    71    95    94    2
    72   135   136   ar
    73   135   137   ar
    74   140   141    1
    75   160   161    2
    76   142   143    2
    77   142   141    1
    78   191   190    1
    79   121   122    1
    80   121   123    1
    81   136   138   ar
    82   162   163    1
    83   163   165   ar
    84   168   169    1
    85   168   167   ar
    86   190   187    1
    87   155   157    1
    88    97    96    1
    89    97    99    1
    90    96    93    1
    91   205   207    1
    92   205   206    1
    93    94    93    1
    94    34    33    1
    95   141   144    1
    96   137   139   ar
    97    93    92    1
    98   165   167   ar
    99   138   139   ar
   100   144   145    1
   101    33    32    1
   102   147   145   ar
   103   147   149   ar
   104   187   186    1
   105   187   188    1
   106   145   146   ar
   107   186   180   am
   108    90    89    1
   109   188   189    2
   110   178   179    1
   111   149   148   ar
   112    32    31    1
   113   184   182    1
   114   146   148   ar
   115   180   179    1
   116   180   181    2
   117    87    86    2
   118    26    24    1
   119   179   182    1
   120    89    91    1
   121    89    88    1
   122    31    28    1
   123   182   183    1
   124    82    81    2
   125    85    86    1
   126    85    88    1
   127    85    84    1
   128    20    21    1
   129    21    24    1
   130    21    22    1
   131    24    25    1
   132    28    27    1
   133    28    29    1
   134   199   197    1
   135    81    84   am
   136    81    80    1
   137     7     6    1
   138   183   185    1
   139    83    80    1
   140    30    29    2
   141   196   198    1
   142   196   197    1
   143   196   193    1
   144    23    22    2
   145    29    36   am
   146    80    79    1
   147   192   193    1
   148     8     6    1
   149     6     5    1
   150   194   193    1
   151   194   195    2
   152    70    68    1
   153    67    66    2
   154    36    37    1
   155     4     3    2
   156    44    46   ar
   157    44    42   ar
   158     5     2    1
   159    46    45   ar
   160     2     3    1
   161     2     1    1
   162    42    41   ar
   163    68    65    1
   164    68    69    1
   165    66    65    1
   166    66    71   am
   167     3     9   am
   168    74    73    2
   169    45    43   ar
   170    37    40    1
   171    37    38    1
   172    65    64    1
   173    78    76    1
   174    41    43   ar
   175    41    40    1
   176    17    15   ar
   177    17    19   ar
   178    73    72    1
   179    72    71    1
   180    72    75    1
   181    60    59    2
   182    15    14   ar
   183    56    55   ar
   184    56    54   ar
   185    38    39    2
   186     9    10    1
   187    12    11    2
   188    55    53   ar
   189    10    11    1
   190    10    13    1
   191    64    59   am
   192    59    58    1
   193    62    61    1
   194    19    18   ar
   195    75    76    1
   196    76    77    1
   197    14    13    1
   198    14    16   ar
   199    54    52   ar
   200    53    52   ar
   201    61    58    1
   202    61    63    1
   203    18    16   ar
   204    58    57    1
   205    52    51    1
   206    50    49    2
   207    49    48    1
   208    51    48    1
   209    48    47    1
