@<TRIPOS>MOLECULE
tmp/3ba8A01.pdb
 141 136 0 0 0
SMALL
GASTEIGER

@<TRIPOS>ATOM
      1  N         28.1290   38.5230   51.5560 N.3    83  TYR83      -0.1241
      2  CA        28.4960   37.5300   52.5470 C.3    83  TYR83       0.1605
      3  C         27.8210   36.1970   52.2700 C.2    83  TYR83       0.2264
      4  O         26.9680   36.0860   51.3830 O.2    83  TYR83      -0.2867
      5  CB        28.0860   37.9930   53.9420 C.3    83  TYR83       0.0534
      6  CG        28.8220   39.2060   54.4630 C.ar   83  TYR83      -0.0201
      7  CD1       28.3560   40.5000   54.2110 C.ar   83  TYR83      -0.0009
      8  CD2       29.9560   39.0570   55.2620 C.ar   83  TYR83      -0.0009
      9  CE1       29.0040   41.6160   54.7560 C.ar   83  TYR83       0.0417
     10  CE2       30.6060   40.1580   55.8070 C.ar   83  TYR83       0.0417
     11  CZ        30.1280   41.4300   55.5560 C.ar   83  TYR83       0.1957
     12  OH        30.7680   42.5060   56.1310 O.3    83  TYR83      -0.2866
     13  N         26.1920   32.5310   54.3480 N.3    85  LEU85      -0.1245
     14  CA        25.4190   32.2730   55.5540 C.3    85  LEU85       0.1561
     15  C         26.0450   31.2660   56.4970 C.2    85  LEU85       0.2260
     16  O         26.6810   30.3020   56.0620 O.2    85  LEU85      -0.2867
     17  CB        24.0250   31.7740   55.1780 C.3    85  LEU85       0.0270
     18  CG        23.0920   32.7540   54.4650 C.3    85  LEU85       0.0019
     19  CD1       21.8850   31.9930   53.9320 C.3    85  LEU85       0.0001
     20  CD2       22.6570   33.8490   55.4360 C.3    85  LEU85       0.0001
     21  N         12.5820   31.9610   54.7930 N.3   114  GLU114     -0.1231
     22  CA        12.5460   31.7360   53.3560 C.3   114  GLU114      0.1699
     23  C         13.1560   30.3820   53.0090 C.2   114  GLU114      0.2592
     24  O         13.9280   29.8200   53.7840 O.2   114  GLU114     -0.2718
     25  CB        13.3440   32.8280   52.6450 C.3   114  GLU114      0.0402
     26  CG        13.0190   34.2390   53.1070 C.3   114  GLU114      0.1161
     27  CD        13.9590   35.2780   52.5230 C.2   114  GLU114      0.3649
     28  OE1       13.9730   36.4160   53.0390 O.co2 114  GLU114     -0.2457
     29  OE2       14.6780   34.9620   51.5470 O.co2 114  GLU114     -0.2457
     30  N         12.8130   29.8650   51.8370 N.am  115  LEU115     -0.1966
     31  CA        13.3720   28.5940   51.3980 C.3   115  LEU115      0.1728
     32  C         14.7630   28.9030   50.8430 C.2   115  LEU115      0.2616
     33  O         14.9610   29.9370   50.1980 O.2   115  LEU115     -0.2715
     34  CB        12.4940   27.9760   50.3040 C.3   115  LEU115      0.0311
     35  CG        11.0330   27.7160   50.6940 C.3   115  LEU115      0.0022
     36  CD1       10.2610   27.1970   49.4920 C.3   115  LEU115      0.0001
     37  CD2       10.9770   26.7120   51.8450 C.3   115  LEU115      0.0001
     38  N         15.7270   28.0260   51.1060 N.am  116  LYS116     -0.1963
     39  CA        17.0830   28.2340   50.6060 C.3   116  LYS116      0.1728
     40  C         17.1710   27.6310   49.2050 C.2   116  LYS116      0.2616
     41  O         17.3450   26.4200   49.0460 O.2   116  LYS116     -0.2715
     42  CB        18.1040   27.5690   51.5350 C.3   116  LYS116      0.0311
     43  CG        19.5620   27.9620   51.2750 C.3   116  LYS116      0.0038
     44  CD        20.4900   27.2990   52.2880 C.3   116  LYS116      0.0206
     45  CE        21.9330   27.7750   52.1520 C.3   116  LYS116      0.1093
     46  NZ        22.5720   27.3560   50.8700 N.3   116  LYS116     -0.1314
     47  N         17.0370   28.4850   48.1940 N.am  117  ILE117     -0.1977
     48  CA        17.0850   28.0450   46.8080 C.3   117  ILE117      0.1596
     49  C         18.4850   27.5510   46.4570 C.2   117  ILE117      0.2287
     50  O         19.4720   28.2450   46.6900 O.2   117  ILE117     -0.2864
     51  CB        16.7090   29.1960   45.8460 C.3   117  ILE117      0.0276
     52  CG1       15.4320   29.8970   46.3280 C.3   117  ILE117      0.0022
     53  CG2       16.5410   28.6550   44.4310 C.3   117  ILE117      0.0022
     54  CD1       14.1910   29.0000   46.4570 C.3   117  ILE117      0.0001
     55  N         28.3190   36.1430   42.9930 N.3   137  ARG137     -0.1245
     56  CA        28.8480   36.4700   44.3080 C.3   137  ARG137      0.1563
     57  C         30.3690   36.3270   44.2820 C.2   137  ARG137      0.2260
     58  O         31.0870   37.1160   44.8990 O.2   137  ARG137     -0.2867
     59  CB        28.2480   35.5410   45.3720 C.3   137  ARG137      0.0307
     60  CG        28.8680   35.6860   46.7550 C.3   137  ARG137      0.0489
     61  CD        27.9030   35.2670   47.8640 C.3   137  ARG137      0.2205
     62  NE        27.4830   33.8670   47.7890 N.pl3 137  ARG137     -0.0865
     63  CZ        26.5700   33.3200   48.5940 C.cat 137  ARG137      0.5346
     64  NH1       26.2430   32.0440   48.4690 N.pl3 137  ARG137      0.1354
     65  NH2       25.9750   34.0520   49.5270 N.pl3 137  ARG137      0.1354
     66  N         18.8100   34.5360   43.9710 N.3   171  GLU171     -0.1245
     67  CA        19.3600   33.3010   43.4510 C.3   171  GLU171      0.1567
     68  C         18.9500   33.0870   42.0030 C.2   171  GLU171      0.2260
     69  O         17.8100   33.3710   41.6180 O.2   171  GLU171     -0.2867
     70  CB        18.8550   32.1220   44.2890 C.3   171  GLU171      0.0388
     71  CG        19.7170   30.8720   44.2110 C.3   171  GLU171      0.1160
     72  CD        20.9450   30.9650   45.1020 C.2   171  GLU171      0.3649
     73  OE1       21.7420   30.0000   45.1210 O.co2 171  GLU171     -0.2457
     74  OE2       21.1110   32.0000   45.7870 O.co2 171  GLU171     -0.2457
     75  N         15.8340   38.1840   46.9190 N.3   223  TYR223     -0.1227
     76  CA        15.5710   38.2110   48.3560 C.3   223  TYR223      0.1736
     77  C         16.3110   39.2390   49.2150 C.2   223  TYR223      0.2596
     78  O         16.0930   39.2940   50.4270 O.2   223  TYR223     -0.2718
     79  CB        15.8150   36.8150   48.9430 C.3   223  TYR223      0.0548
     80  CG        17.1360   36.1980   48.5230 C.ar  223  TYR223     -0.0200
     81  CD1       17.1720   35.0590   47.7140 C.ar  223  TYR223     -0.0009
     82  CD2       18.3500   36.7550   48.9280 C.ar  223  TYR223     -0.0009
     83  CE1       18.3890   34.4850   47.3170 C.ar  223  TYR223      0.0417
     84  CE2       19.5760   36.1920   48.5360 C.ar  223  TYR223      0.0417
     85  CZ        19.5870   35.0580   47.7350 C.ar  223  TYR223      0.1957
     86  OH        20.7930   34.4920   47.3700 O.3   223  TYR223     -0.2866
     87  N         17.1910   40.0370   48.6230 N.am  224  THR224     -0.1953
     88  CA        17.9020   41.0340   49.4180 C.3   224  THR224      0.1897
     89  C         18.0330   42.3800   48.7320 C.2   224  THR224      0.2313
     90  O         18.3770   42.4650   47.5590 O.2   224  THR224     -0.2863
     91  CB        19.3470   40.5920   49.7890 C.3   224  THR224      0.1794
     92  OG1       19.3160   39.3450   50.4980 O.3   224  THR224     -0.2208
     93  CG2       20.0100   41.6560   50.6790 C.3   224  THR224      0.0378
     94  N         16.3200   29.5040   55.1860 N.3   285  VAL285     -0.1245
     95  CA        17.0910   30.6370   55.6720 C.3   285  VAL285      0.1561
     96  C         16.2200   31.4090   56.6670 C.2   285  VAL285      0.2260
     97  O         15.1020   31.8230   56.3450 O.2   285  VAL285     -0.2867
     98  CB        17.5250   31.5780   54.5220 C.3   285  VAL285      0.0252
     99  CG1       18.4030   32.7000   55.0730 C.3   285  VAL285      0.0019
    100  CG2       18.2940   30.7860   53.4650 C.3   285  VAL285      0.0019
    101  N         15.9480   34.7150   58.9080 N.3   287  LYS287     -0.1245
    102  CA        16.4760   36.0780   59.0290 C.3   287  LYS287      0.1561
    103  C         15.7650   36.9540   60.0520 C.2   287  LYS287      0.2260
    104  O         14.5360   36.9540   60.1340 O.2   287  LYS287     -0.2867
    105  CB        16.3820   36.7880   57.6740 C.3   287  LYS287      0.0271
    106  CG        16.8530   35.9580   56.4920 C.3   287  LYS287      0.0035
    107  CD        16.5920   36.6730   55.1680 C.3   287  LYS287      0.0206
    108  CE        17.0500   35.8040   53.9940 C.3   287  LYS287      0.1093
    109  NZ        16.8970   36.4760   52.6730 N.3   287  LYS287     -0.1314
    110  N         27.7930   41.8220   61.2050 N.3   299  PHE299     -0.1241
    111  CA        28.3430   40.6780   60.4890 C.3   299  PHE299      0.1605
    112  C         29.6620   40.2060   61.0860 C.2   299  PHE299      0.2264
    113  O         30.4330   41.0060   61.6090 O.2   299  PHE299     -0.2867
    114  CB        28.6490   41.0280   59.0200 C.3   299  PHE299      0.0534
    115  CG        27.4940   41.5910   58.2530 C.ar  299  PHE299     -0.0203
    116  CD1       27.1030   42.9120   58.4240 C.ar  299  PHE299     -0.0042
    117  CD2       26.8080   40.8010   57.3340 C.ar  299  PHE299     -0.0042
    118  CE1       26.0410   43.4440   57.6870 C.ar  299  PHE299     -0.0003
    119  CE2       25.7460   41.3200   56.5930 C.ar  299  PHE299     -0.0003
    120  CZ        25.3620   42.6450   56.7710 C.ar  299  PHE299     -0.0000
    121  N         26.4480   37.2650   58.2070 N.3   304  PRO304     -0.2116
    122  CA        25.7010   38.1420   59.1060 C.3   304  PRO304      0.1372
    123  C         25.3990   37.3640   60.3830 C.2   304  PRO304      0.2244
    124  O         25.3310   36.1330   60.3620 O.2   304  PRO304     -0.2868
    125  CB        24.4340   38.4660   58.3090 C.3   304  PRO304      0.0268
    126  CG        24.2500   37.2740   57.4380 C.3   304  PRO304      0.0207
    127  CD        25.6680   36.9610   56.9940 C.3   304  PRO304      0.0892
    128  N         22.7140   38.0600   61.9800 N.3   306  TRP306     -0.1241
    129  CA        21.2540   38.1050   61.9830 C.3   306  TRP306      0.1605
    130  C         20.5370   37.0640   61.1350 C.2   306  TRP306      0.2264
    131  O         19.3270   37.1610   60.9080 O.2   306  TRP306     -0.2867
    132  CB        20.7750   39.5020   61.5770 C.3   306  TRP306      0.0550
    133  CG        21.4280   40.0530   60.3360 C.ar  306  TRP306      0.0003
    134  CD1       22.5290   40.8570   60.2760 C.ar  306  TRP306      0.0946
    135  CD2       21.0160   39.8340   58.9820 C.ar  306  TRP306      0.0152
    136  NE1       22.8290   41.1560   58.9670 N.ar  306  TRP306     -0.2442
    137  CE2       21.9160   40.5400   58.1520 C.ar  306  TRP306      0.0810
    138  CE3       19.9720   39.1100   58.3890 C.ar  306  TRP306      0.0012
    139  CZ2       21.8040   40.5440   56.7560 C.ar  306  TRP306      0.0191
    140  CZ3       19.8590   39.1120   57.0030 C.ar  306  TRP306      0.0001
    141  CH2       20.7710   39.8250   56.2010 C.ar  306  TRP306      0.0015
@<TRIPOS>BOND
     1    69    68    2
     2    68    67    1
     3    55    56    1
     4    67    66    1
     5    67    70    1
     6    71    70    1
     7    71    72    1
     8    57    56    1
     9    57    58    2
    10    56    59    1
    11    53    51    1
    12    72    73   ar
    13    72    74   ar
    14    59    60    1
    15    51    52    1
    16    51    48    1
    17    52    54    1
    18    49    50    2
    19    49    48    1
    20    60    61    1
    21    48    47    1
    22    75    76    1
    23    83    81   ar
    24    83    85   ar
    25    86    85    1
    26    90    89    2
    27    81    80   ar
    28    85    84   ar
    29    62    61    1
    30    62    63    2
    31    47    40   am
    32    76    79    1
    33    76    77    1
    34    64    63    1
    35    80    82   ar
    36    80    79    1
    37    84    82   ar
    38    63    65    1
    39    87    77   am
    40    87    88    1
    41    89    88    1
    42    41    40    2
    43    40    39    1
    44    77    78    2
    45    88    91    1
    46    36    35    1
    47    91    92    1
    48    91    93    1
    49    33    32    2
    50    34    35    1
    51    34    31    1
    52    39    38    1
    53    39    42    1
    54    35    37    1
    55    32    38   am
    56    32    31    1
    57    46    45    1
    58    43    42    1
    59    43    44    1
    60     4     3    2
    61    31    30    1
    62    29    27   ar
    63     1     2    1
    64    30    23   am
    65    45    44    1
    66     3     2    1
    67    27    28   ar
    68    27    26    1
    69     2     5    1
    70    25    26    1
    71    25    22    1
    72   109   108    1
    73    23    22    1
    74    23    24    2
    75    22    21    1
    76   100    98    1
    77    19    18    1
    78     5     6    1
    79   108   107    1
    80     7     6   ar
    81     7     9   ar
    82    13    14    1
    83     6     8   ar
    84    18    17    1
    85    18    20    1
    86    98    99    1
    87    98    95    1
    88     9    11   ar
    89   107   106    1
    90    17    14    1
    91    94    95    1
    92     8    10   ar
    93    14    15    1
    94    11    10   ar
    95    11    12    1
    96    95    96    1
    97    16    15    2
    98   141   139   ar
    99   141   140   ar
   100    97    96    2
   101   106   105    1
   102   119   120   ar
   103   119   117   ar
   104   139   137   ar
   105   120   118   ar
   106   127   126    1
   107   127   121    1
   108   140   138   ar
   109   117   115   ar
   110   126   125    1
   111   105   102    1
   112   118   116   ar
   113   137   136   ar
   114   137   135   ar
   115   121   122    1
   116   115   116   ar
   117   115   114    1
   118   125   122    1
   119   138   135   ar
   120   101   102    1
   121   136   134   ar
   122   135   133   ar
   123   114   111    1
   124   102   103    1
   125   122   123    1
   126   103   104    2
   127   134   133   ar
   128   133   132    1
   129   124   123    2
   130   111   112    1
   131   111   110    1
   132   131   130    2
   133   112   113    2
   134   130   129    1
   135   132   129    1
   136   128   129    1
