@<TRIPOS>MOLECULE
tmp/3ba9A01.pdb
 204 200 0 0 0
SMALL
GASTEIGER

@<TRIPOS>ATOM
      1  N         30.9170   46.6900   46.4820 N.3    79  ASP79      -0.1225
      2  CA        31.2850   47.6430   47.5310 C.3    79  ASP79       0.1805
      3  C         30.5400   47.3070   48.8100 C.2    79  ASP79       0.2598
      4  O         31.0380   47.5410   49.9110 O.2    79  ASP79      -0.2718
      5  CB        30.9820   49.0760   47.0980 C.3    79  ASP79       0.1424
      6  CG        31.8110   49.5050   45.9060 C.2    79  ASP79       0.3668
      7  OD1       33.0120   49.1560   45.8640 O.co2  79  ASP79      -0.2456
      8  OD2       31.2650   50.1950   45.0180 O.co2  79  ASP79      -0.2456
      9  N         29.3300   46.7820   48.6500 N.am   80  ILE80      -0.1966
     10  CA        28.5230   46.3360   49.7770 C.3    80  ILE80       0.1712
     11  C         28.7190   44.8320   49.6320 C.2    80  ILE80       0.2458
     12  O         28.2730   44.2330   48.6560 O.2    80  ILE80      -0.2730
     13  CB        27.0350   46.6920   49.5990 C.3    80  ILE80       0.0289
     14  CG1       26.8620   48.2150   49.5960 C.3    80  ILE80       0.0022
     15  CG2       26.2120   46.0640   50.7190 C.3    80  ILE80       0.0023
     16  CD1       25.4340   48.6730   49.3460 C.3    80  ILE80       0.0001
     17  N         29.4120   44.2020   50.5890 N.am   81  PRO81      -0.2716
     18  CA        29.6430   42.7600   50.4880 C.3    81  PRO81       0.1536
     19  C         28.4190   41.8610   50.4310 C.2    81  PRO81       0.2598
     20  O         27.3480   42.1970   50.9400 O.2    81  PRO81      -0.2715
     21  CB        30.5230   42.4650   51.7010 C.3    81  PRO81       0.0310
     22  CG        30.0530   43.4740   52.7030 C.3    81  PRO81       0.0237
     23  CD        29.9060   44.7300   51.8740 C.3    81  PRO81       0.0939
     24  N         28.5890   40.7190   49.7760 N.am   82  MET82      -0.1964
     25  CA        27.5320   39.7260   49.6880 C.3    82  MET82       0.1736
     26  C         27.9580   38.6900   50.7160 C.2    82  MET82       0.2616
     27  O         28.8370   37.8650   50.4630 O.2    82  MET82      -0.2715
     28  CB        27.4680   39.1200   48.2840 C.3    82  MET82       0.0427
     29  CG        26.9190   40.0860   47.2390 C.3    82  MET82       0.0599
     30  SD        26.7160   39.3460   45.6080 S.3    82  MET82      -0.1393
     31  CE        25.3800   38.1760   45.9300 C.3    82  MET82       0.0692
     32  N         27.3500   38.7680   51.8930 N.am   83  TYR83      -0.1960
     33  CA        27.6810   37.8710   52.9910 C.3    83  TYR83       0.1771
     34  C         27.2340   36.4340   52.8340 C.2    83  TYR83       0.2620
     35  O         26.3630   36.1210   52.0290 O.2    83  TYR83      -0.2715
     36  CB        27.1030   38.4030   54.3020 C.3    83  TYR83       0.0574
     37  CG        27.9000   39.5260   54.9090 C.ar   83  TYR83      -0.0198
     38  CD1       27.5840   40.8550   54.6450 C.ar   83  TYR83      -0.0009
     39  CD2       28.9860   39.2560   55.7430 C.ar   83  TYR83      -0.0009
     40  CE1       28.3300   41.8930   55.2000 C.ar   83  TYR83       0.0417
     41  CE2       29.7370   40.2840   56.2990 C.ar   83  TYR83       0.0417
     42  CZ        29.4060   41.5990   56.0250 C.ar   83  TYR83       0.1957
     43  OH        30.1510   42.6160   56.5790 O.3    83  TYR83      -0.2866
     44  N         27.8580   35.5670   53.6230 N.am   84  SER84      -0.1936
     45  CA        27.5160   34.1540   53.6570 C.3    84  SER84       0.2055
     46  C         26.5870   34.0150   54.8620 C.2    84  SER84       0.2642
     47  O         26.2660   35.0030   55.5210 O.2    84  SER84      -0.2714
     48  CB        28.7700   33.2970   53.8750 C.3    84  SER84       0.2130
     49  OG        29.6710   33.4090   52.7860 O.3    84  SER84      -0.2179
     50  N         26.1600   32.7940   55.1520 N.am   85  LEU85      -0.1977
     51  CA        25.2760   32.5500   56.2860 C.3    85  LEU85       0.1596
     52  C         25.8790   31.5120   57.2110 C.2    85  LEU85       0.2287
     53  O         26.5490   30.5830   56.7540 O.2    85  LEU85      -0.2864
     54  CB        23.9190   32.0310   55.8100 C.3    85  LEU85       0.0297
     55  CG        22.9290   32.9910   55.1490 C.3    85  LEU85       0.0022
     56  CD1       21.8050   32.1780   54.5160 C.3    85  LEU85       0.0001
     57  CD2       22.3630   33.9560   56.1890 C.3    85  LEU85       0.0001
     58  N         12.4240   32.1590   55.0680 N.3   114  GLU114     -0.1231
     59  CA        12.4360   31.9750   53.6250 C.3   114  GLU114      0.1699
     60  C         13.0990   30.6480   53.2890 C.2   114  GLU114      0.2592
     61  O         13.8190   30.0780   54.1100 O.2   114  GLU114     -0.2718
     62  CB        13.2280   33.1080   52.9720 C.3   114  GLU114      0.0402
     63  CG        12.8420   34.4820   53.4790 C.3   114  GLU114      0.1161
     64  CD        13.7910   35.5670   53.0090 C.2   114  GLU114      0.3649
     65  OE1       13.8480   36.6230   53.6680 O.co2 114  GLU114     -0.2457
     66  OE2       14.4690   35.3700   51.9780 O.co2 114  GLU114     -0.2457
     67  N         12.8570   30.1580   52.0810 N.am  115  LEU115     -0.1966
     68  CA        13.4650   28.9090   51.6540 C.3   115  LEU115      0.1728
     69  C         14.8410   29.2110   51.0820 C.2   115  LEU115      0.2616
     70  O         15.0350   30.2390   50.4330 O.2   115  LEU115     -0.2715
     71  CB        12.6070   28.2310   50.5840 C.3   115  LEU115      0.0311
     72  CG        11.1670   27.9240   51.0010 C.3   115  LEU115      0.0022
     73  CD1       10.4160   27.2870   49.8470 C.3   115  LEU115      0.0001
     74  CD2       11.1750   26.9930   52.2000 C.3   115  LEU115      0.0001
     75  N         15.7990   28.3260   51.3390 N.am  116  LYS116     -0.1963
     76  CA        17.1390   28.5040   50.8030 C.3   116  LYS116      0.1728
     77  C         17.1440   27.7830   49.4580 C.2   116  LYS116      0.2616
     78  O         17.0580   26.5560   49.3990 O.2   116  LYS116     -0.2715
     79  CB        18.1880   27.8980   51.7420 C.3   116  LYS116      0.0311
     80  CG        19.6100   28.3130   51.4020 C.3   116  LYS116      0.0038
     81  CD        20.6070   27.8400   52.4450 C.3   116  LYS116      0.0206
     82  CE        21.9950   28.3910   52.1530 C.3   116  LYS116      0.1093
     83  NZ        22.4870   27.9860   50.7960 N.3   116  LYS116     -0.1314
     84  N         17.2150   28.5570   48.3790 N.am  117  ILE117     -0.1977
     85  CA        17.2000   28.0090   47.0250 C.3   117  ILE117      0.1596
     86  C         18.5700   27.4840   46.6090 C.2   117  ILE117      0.2287
     87  O         19.5730   28.1800   46.7460 O.2   117  ILE117     -0.2864
     88  CB        16.7680   29.0840   46.0020 C.3   117  ILE117      0.0276
     89  CG1       15.5120   29.8060   46.4970 C.3   117  ILE117      0.0022
     90  CG2       16.5200   28.4410   44.6480 C.3   117  ILE117      0.0022
     91  CD1       14.3040   28.9000   46.7130 C.3   117  ILE117      0.0001
     92  N         19.6430   41.5100   45.4050 N.3   169  ARG169     -0.1245
     93  CA        20.3060   40.2250   45.3030 C.3   169  ARG169      0.1563
     94  C         19.3730   39.0670   45.5710 C.2   169  ARG169      0.2260
     95  O         18.3530   39.2100   46.2380 O.2   169  ARG169     -0.2867
     96  CB        21.4820   40.1930   46.2670 C.3   169  ARG169      0.0307
     97  CG        22.5220   41.2450   45.9230 C.3   169  ARG169      0.0489
     98  CD        23.3480   41.6030   47.1190 C.3   169  ARG169      0.2205
     99  NE        24.3670   42.5870   46.7860 N.pl3 169  ARG169     -0.0865
    100  CZ        25.2590   43.0400   47.6570 C.cat 169  ARG169      0.5346
    101  NH1       25.2410   42.5930   48.9040 N.pl3 169  ARG169      0.1354
    102  NH2       26.1730   43.9210   47.2780 N.pl3 169  ARG169      0.1354
    103  N         18.8400   34.5570   44.2170 N.3   171  GLU171     -0.1245
    104  CA        19.3600   33.3320   43.6430 C.3   171  GLU171      0.1567
    105  C         18.9120   33.1520   42.1990 C.2   171  GLU171      0.2260
    106  O         17.7870   33.5010   41.8430 O.2   171  GLU171     -0.2867
    107  CB        18.8410   32.1360   44.4490 C.3   171  GLU171      0.0388
    108  CG        19.7060   30.9010   44.3760 C.3   171  GLU171      0.1160
    109  CD        20.7470   30.8910   45.4650 C.2   171  GLU171      0.3649
    110  OE1       21.6680   30.0510   45.4030 O.co2 171  GLU171     -0.2457
    111  OE2       20.6320   31.7220   46.3940 O.co2 171  GLU171     -0.2457
    112  N         15.7250   38.2880   47.1790 N.3   223  TYR223     -0.1227
    113  CA        15.3700   38.4100   48.5910 C.3   223  TYR223      0.1736
    114  C         16.1920   39.4090   49.3910 C.2   223  TYR223      0.2596
    115  O         16.0000   39.5410   50.5990 O.2   223  TYR223     -0.2718
    116  CB        15.4710   37.0450   49.2640 C.3   223  TYR223      0.0548
    117  CG        16.7590   36.3190   48.9480 C.ar  223  TYR223     -0.0200
    118  CD1       16.7560   35.1770   48.1450 C.ar  223  TYR223     -0.0009
    119  CD2       17.9810   36.7850   49.4290 C.ar  223  TYR223     -0.0009
    120  CE1       17.9380   34.5170   47.8310 C.ar  223  TYR223      0.0417
    121  CE2       19.1720   36.1330   49.1140 C.ar  223  TYR223      0.0417
    122  CZ        19.1400   35.0010   48.3180 C.ar  223  TYR223      0.1957
    123  OH        20.3100   34.3450   48.0140 O.3   223  TYR223     -0.2866
    124  N         17.1020   40.1090   48.7270 N.am  224  THR224     -0.1939
    125  CA        17.9450   41.0770   49.4160 C.3   224  THR224      0.2028
    126  C         18.0020   42.4330   48.7350 C.2   224  THR224      0.2642
    127  O         18.1150   42.5320   47.5160 O.2   224  THR224     -0.2714
    128  CB        19.4050   40.5650   49.5410 C.3   224  THR224      0.1808
    129  OG1       19.4300   39.3420   50.2880 O.3   224  THR224     -0.2208
    130  CG2       20.2770   41.5990   50.2420 C.3   224  THR224      0.0379
    131  N         17.9060   43.4790   49.5420 N.am  225  VAL225     -0.1963
    132  CA        18.0280   44.8330   49.0430 C.3   225  VAL225      0.1727
    133  C         19.3910   45.2650   49.5860 C.2   225  VAL225      0.2616
    134  O         19.5860   45.3170   50.7990 O.2   225  VAL225     -0.2715
    135  CB        16.9240   45.7570   49.6050 C.3   225  VAL225      0.0290
    136  CG1       17.1070   47.1660   49.0590 C.3   225  VAL225      0.0023
    137  CG2       15.5460   45.2170   49.2310 C.3   225  VAL225      0.0023
    138  N         20.3430   45.5270   48.6950 N.am  226  ALA226     -0.1977
    139  CA        21.6830   45.9410   49.1090 C.3   226  ALA226      0.1597
    140  C         21.7520   47.4610   49.1230 C.2   226  ALA226      0.2287
    141  O         22.1450   48.0690   50.1170 O.2   226  ALA226     -0.2864
    142  CB        22.7230   45.3760   48.1550 C.3   226  ALA226      0.0319
    143  N         16.1260   29.7070   55.6200 N.3   285  VAL285     -0.1245
    144  CA        16.8960   30.8260   56.1520 C.3   285  VAL285      0.1561
    145  C         16.0130   31.6050   57.1220 C.2   285  VAL285      0.2260
    146  O         14.8930   31.9910   56.7880 O.2   285  VAL285     -0.2867
    147  CB        17.4070   31.7720   55.0370 C.3   285  VAL285      0.0252
    148  CG1       18.2830   32.8690   55.6500 C.3   285  VAL285      0.0019
    149  CG2       18.2250   30.9800   54.0190 C.3   285  VAL285      0.0019
    150  N         15.7640   34.9500   59.4770 N.3   287  LYS287     -0.1245
    151  CA        16.3180   36.2930   59.6530 C.3   287  LYS287      0.1561
    152  C         15.5400   37.1420   60.6540 C.2   287  LYS287      0.2260
    153  O         14.3100   37.1660   60.6320 O.2   287  LYS287     -0.2867
    154  CB        16.3200   37.0370   58.3080 C.3   287  LYS287      0.0271
    155  CG        16.9990   36.2880   57.1650 C.3   287  LYS287      0.0035
    156  CD        16.7570   36.9600   55.8110 C.3   287  LYS287      0.0206
    157  CE        17.4140   36.1570   54.6880 C.3   287  LYS287      0.1093
    158  NZ        17.1150   36.6830   53.3150 N.3   287  LYS287     -0.1314
    159  N         18.5650   44.0720   63.3500 N.3   294  GLN294     -0.1245
    160  CA        19.6620   43.4430   62.6190 C.3   294  GLN294      0.1566
    161  C         20.9030   44.3020   62.8430 C.2   294  GLN294      0.2260
    162  O         21.9880   43.7920   63.1260 O.2   294  GLN294     -0.2867
    163  CB        19.3640   43.3710   61.1210 C.3   294  GLN294      0.0367
    164  CG        18.2240   42.4280   60.7420 C.3   294  GLN294      0.0905
    165  CD        18.0270   42.3350   59.2360 C.2   294  GLN294      0.2608
    166  OE1       17.1130   41.6620   58.7550 O.2   294  GLN294     -0.2717
    167  NE2       18.8900   43.0080   58.4870 N.am  294  GLN294     -0.0878
    168  N         27.4510   42.0410   62.0700 N.3   299  PHE299     -0.1241
    169  CA        27.9820   40.9240   61.2960 C.3   299  PHE299      0.1605
    170  C         29.3060   40.4030   61.8430 C.2   299  PHE299      0.2264
    171  O         30.0750   41.1550   62.4500 O.2   299  PHE299     -0.2867
    172  CB        28.2420   41.3470   59.8400 C.3   299  PHE299      0.0534
    173  CG        27.0670   41.9830   59.1610 C.ar  299  PHE299     -0.0203
    174  CD1       26.6390   43.2570   59.5230 C.ar  299  PHE299     -0.0042
    175  CD2       26.3790   41.3050   58.1600 C.ar  299  PHE299     -0.0042
    176  CE1       25.5410   43.8470   58.9000 C.ar  299  PHE299     -0.0003
    177  CE2       25.2770   41.8870   57.5280 C.ar  299  PHE299     -0.0003
    178  CZ        24.8580   43.1580   57.9000 C.ar  299  PHE299     -0.0000
    179  N         26.0760   37.6180   58.8430 N.3   304  PRO304     -0.2116
    180  CA        25.3730   38.4130   59.8460 C.3   304  PRO304      0.1372
    181  C         25.1050   37.5590   61.0830 C.2   304  PRO304      0.2244
    182  O         25.0010   36.3330   60.9910 O.2   304  PRO304     -0.2868
    183  CB        24.0860   38.8190   59.1260 C.3   304  PRO304      0.0268
    184  CG        23.8500   37.6880   58.1760 C.3   304  PRO304      0.0207
    185  CD        25.2430   37.4140   57.6440 C.3   304  PRO304      0.0892
    186  N         22.4930   38.1140   62.7550 N.3   306  TRP306     -0.1227
    187  CA        21.0320   38.1460   62.7860 C.3   306  TRP306      0.1737
    188  C         20.3070   37.1490   61.8870 C.2   306  TRP306      0.2595
    189  O         19.0900   37.2360   61.7150 O.2   306  TRP306     -0.2718
    190  CB        20.5260   39.5600   62.4720 C.3   306  TRP306      0.0564
    191  CG        21.1870   40.2230   61.2790 C.ar  306  TRP306      0.0003
    192  CD1       22.2620   41.0610   61.3000 C.ar  306  TRP306      0.0946
    193  CD2       20.7880   40.1170   59.9040 C.ar  306  TRP306      0.0152
    194  NE1       22.5570   41.4920   60.0270 N.ar  306  TRP306     -0.2442
    195  CE2       21.6680   40.9260   59.1510 C.ar  306  TRP306      0.0810
    196  CE3       19.7730   39.4150   59.2380 C.ar  306  TRP306      0.0012
    197  CZ2       21.5640   41.0570   57.7600 C.ar  306  TRP306      0.0191
    198  CZ3       19.6690   39.5440   57.8510 C.ar  306  TRP306      0.0001
    199  CH2       20.5600   40.3610   57.1300 C.ar  306  TRP306      0.0015
    200  N         21.0390   36.2060   61.3090 N.am  307  ALA307     -0.1980
    201  CA        20.4040   35.2100   60.4590 C.3   307  ALA307      0.1597
    202  C         21.1370   33.8930   60.5770 C.2   307  ALA307      0.2287
    203  O         22.2970   33.8510   60.9850 O.2   307  ALA307     -0.2864
    204  CB        20.3930   35.6750   59.0040 C.3   307  ALA307      0.0319
@<TRIPOS>BOND
     1   106   105    2
     2   105   104    1
     3   104   103    1
     4   104   107    1
     5   108   107    1
     6   108   109    1
     7    90    88    1
     8     8     6   ar
     9    93    92    1
    10    93    94    1
    11    93    96    1
    12   110   109   ar
    13   109   111   ar
    14    94    95    2
    15    30    31    1
    16    30    29    1
    17     7     6   ar
    18     6     5    1
    19    97    96    1
    20    97    98    1
    21    88    89    1
    22    88    85    1
    23     1     2    1
    24    89    91    1
    25    86    87    2
    26    86    85    1
    27    99    98    1
    28    99   100    2
    29    85    84    1
    30     5     2    1
    31   112   113    1
    32    29    28    1
    33   102   100    1
    34   127   126    2
    35     2     3    1
    36   100   101    1
    37   120   118   ar
    38   120   122   ar
    39   123   122    1
    40   118   117   ar
    41   142   139    1
    42    28    25    1
    43   122   121   ar
    44    84    77   am
    45   113   116    1
    46   113   114    1
    47     9     3   am
    48     9    10    1
    49    12    11    2
    50   138   139    1
    51   138   133   am
    52   124   114   am
    53   124   125    1
    54   126   125    1
    55   126   131   am
    56     3     4    2
    57   117   116    1
    58   117   119   ar
    59   132   131    1
    60   132   133    1
    61   132   135    1
    62   136   135    1
    63   139   140    1
    64   121   119   ar
    65   140   141    2
    66   137   135    1
    67    16    14    1
    68   114   115    2
    69    78    77    2
    70   125   128    1
    71    77    76    1
    72   128   130    1
    73   128   129    1
    74   133   134    2
    75    14    13    1
    76    13    10    1
    77    13    15    1
    78    11    10    1
    79    11    17   am
    80    25    24    1
    81    25    26    1
    82    24    19   am
    83    73    72    1
    84    19    18    1
    85    19    20    2
    86    70    69    2
    87    27    26    2
    88    18    17    1
    89    18    21    1
    90    71    72    1
    91    71    68    1
    92    17    23    1
    93    26    32   am
    94    83    82    1
    95    76    75    1
    96    76    79    1
    97    72    74    1
    98    69    75   am
    99    69    68    1
   100    80    79    1
   101    80    81    1
   102    68    67    1
   103    21    22    1
   104    23    22    1
   105    32    33    1
   106    66    64   ar
   107    35    34    2
   108    67    60   am
   109    82    81    1
   110    49    48    1
   111    34    33    1
   112    34    44   am
   113    62    63    1
   114    62    59    1
   115    33    36    1
   116    64    63    1
   117    64    65   ar
   118    60    59    1
   119    60    61    2
   120   158   157    1
   121    44    45    1
   122    59    58    1
   123    45    48    1
   124    45    46    1
   125   149   147    1
   126    36    37    1
   127    56    55    1
   128    38    37   ar
   129    38    40   ar
   130   157   156    1
   131    46    50   am
   132    46    47    2
   133    37    39   ar
   134   147   148    1
   135   147   144    1
   136    55    54    1
   137    55    57    1
   138    50    51    1
   139    40    42   ar
   140   143   144    1
   141    39    41   ar
   142    54    51    1
   143   156   155    1
   144    42    41   ar
   145    42    43    1
   146   144   145    1
   147    51    52    1
   148    53    52    2
   149   146   145    2
   150   199   197   ar
   151   199   198   ar
   152   155   154    1
   153   177   178   ar
   154   177   175   ar
   155   185   184    1
   156   185   179    1
   157   197   195   ar
   158   198   196   ar
   159   178   176   ar
   160   175   173   ar
   161   184   183    1
   162   154   151    1
   163   167   165   am
   164   166   165    2
   165   179   180    1
   166   176   174   ar
   167   204   201    1
   168   183   180    1
   169   195   193   ar
   170   195   194   ar
   171   173   174   ar
   172   173   172    1
   173   165   164    1
   174   196   193   ar
   175   150   151    1
   176   151   152    1
   177   172   169    1
   178   180   181    1
   179   193   191   ar
   180   194   192   ar
   181   201   202    1
   182   201   200    1
   183   202   203    2
   184   153   152    2
   185   164   163    1
   186   182   181    2
   187   163   160    1
   188   191   192   ar
   189   191   190    1
   190   169   170    1
   191   169   168    1
   192   200   188   am
   193   189   188    2
   194   170   171    2
   195   188   187    1
   196   190   187    1
   197   160   161    1
   198   160   159    1
   199   186   187    1
   200   161   162    2
