@<TRIPOS>MOLECULE
tmp/3baaA01.pdb
 180 175 0 0 0
SMALL
GASTEIGER

@<TRIPOS>ATOM
      1  N         28.9070   40.6470   49.5930 N.3    81  MET81      -0.1230
      2  CA        27.8730   39.6290   49.5330 C.3    81  MET81       0.1702
      3  C         28.3810   38.5430   50.4880 C.2    81  MET81       0.2592
      4  O         29.1770   37.6680   50.1190 O.2    81  MET81      -0.2718
      5  CB        27.7160   39.0820   48.1120 C.3    81  MET81       0.0401
      6  CG        27.0000   40.0390   47.1820 C.3    81  MET81       0.0596
      7  SD        26.7160   39.3540   45.5350 S.3    81  MET81      -0.1393
      8  CE        25.3880   38.1980   45.8390 C.3    81  MET81       0.0692
      9  N         27.9440   38.6460   51.7380 N.am   82  TYR82      -0.1962
     10  CA        28.3340   37.7030   52.7700 C.3    82  TYR82       0.1771
     11  C         27.7680   36.3260   52.4940 C.2    82  TYR82       0.2620
     12  O         26.9250   36.1440   51.6130 O.2    82  TYR82      -0.2715
     13  CB        27.8290   38.1660   54.1370 C.3    82  TYR82       0.0574
     14  CG        28.6110   39.3080   54.7440 C.ar   82  TYR82      -0.0198
     15  CD1       28.3070   40.6330   54.4390 C.ar   82  TYR82      -0.0009
     16  CD2       29.6570   39.0590   55.6350 C.ar   82  TYR82      -0.0009
     17  CE1       29.0250   41.6840   55.0110 C.ar   82  TYR82       0.0417
     18  CE2       30.3810   40.0960   56.2100 C.ar   82  TYR82       0.0417
     19  CZ        30.0620   41.4040   55.8980 C.ar   82  TYR82       0.1957
     20  OH        30.7810   42.4280   56.4740 O.3    82  TYR82      -0.2866
     21  N         28.2490   35.3520   53.2490 N.am   83  SER83      -0.1936
     22  CA        27.7410   34.0040   53.1230 C.3    83  SER83       0.2055
     23  C         26.8070   33.8130   54.3220 C.2    83  SER83       0.2642
     24  O         26.6480   34.7210   55.1400 O.2    83  SER83      -0.2714
     25  CB        28.8860   32.9980   53.1640 C.3    83  SER83       0.2130
     26  OG        28.4040   31.7150   52.8210 O.3    83  SER83      -0.2179
     27  N         26.1840   32.6470   54.4280 N.am   84  LEU84      -0.1977
     28  CA        25.2740   32.3810   55.5340 C.3    84  LEU84       0.1596
     29  C         25.8500   31.4030   56.5310 C.2    84  LEU84       0.2287
     30  O         26.5480   30.4610   56.1530 O.2    84  LEU84      -0.2864
     31  CB        23.9590   31.7950   55.0230 C.3    84  LEU84       0.0297
     32  CG        22.8920   32.7060   54.4460 C.3    84  LEU84       0.0022
     33  CD1       21.8050   31.8280   53.8400 C.3    84  LEU84       0.0001
     34  CD2       22.3290   33.6130   55.5340 C.3    84  LEU84       0.0001
     35  N         12.4210   32.0690   54.8510 N.3   113  GLU113     -0.1231
     36  CA        12.3850   31.8760   53.4120 C.3   113  GLU113      0.1699
     37  C         13.0160   30.5460   53.0340 C.2   113  GLU113      0.2592
     38  O         13.8500   30.0150   53.7650 O.2   113  GLU113     -0.2718
     39  CB        13.1470   33.0170   52.7400 C.3   113  GLU113      0.0402
     40  CG        12.7200   34.3880   53.2310 C.3   113  GLU113      0.1161
     41  CD        13.6380   35.4940   52.7570 C.2   113  GLU113      0.3649
     42  OE1       13.5570   36.6040   53.3190 O.co2 113  GLU113     -0.2457
     43  OE2       14.4330   35.2570   51.8220 O.co2 113  GLU113     -0.2457
     44  N         12.6130   30.0090   51.8890 N.am  114  LEU114     -0.1966
     45  CA        13.1670   28.7480   51.4150 C.3   114  LEU114      0.1728
     46  C         14.5660   29.0080   50.8630 C.2   114  LEU114      0.2616
     47  O         14.8000   30.0300   50.2110 O.2   114  LEU114     -0.2715
     48  CB        12.2830   28.1530   50.3120 C.3   114  LEU114      0.0311
     49  CG        10.8520   27.7990   50.7180 C.3   114  LEU114      0.0022
     50  CD1       10.1180   27.1760   49.5390 C.3   114  LEU114      0.0001
     51  CD2       10.8930   26.8380   51.8970 C.3   114  LEU114      0.0001
     52  N         15.4950   28.0930   51.1260 N.am  115  LYS115     -0.1963
     53  CA        16.8550   28.2480   50.6310 C.3   115  LYS115      0.1728
     54  C         16.9460   27.6060   49.2500 C.2   115  LYS115      0.2616
     55  O         17.1690   26.4020   49.1230 O.2   115  LYS115     -0.2715
     56  CB        17.8540   27.5990   51.5950 C.3   115  LYS115      0.0311
     57  CG        19.3170   27.9660   51.3590 C.3   115  LYS115      0.0038
     58  CD        20.1930   27.3870   52.4680 C.3   115  LYS115      0.0206
     59  CE        21.6570   27.7480   52.2890 C.3   115  LYS115      0.1093
     60  NZ        22.2240   27.2130   51.0130 N.3   115  LYS115     -0.1314
     61  N         16.7520   28.4280   48.2230 N.am  116  ILE116     -0.1977
     62  CA        16.8040   27.9930   46.8310 C.3   116  ILE116      0.1596
     63  C         18.1980   27.4860   46.4740 C.2   116  ILE116      0.2287
     64  O         19.2060   28.1510   46.7220 O.2   116  ILE116     -0.2864
     65  CB        16.4400   29.1570   45.8710 C.3   116  ILE116      0.0276
     66  CG1       15.1000   29.7770   46.2830 C.3   116  ILE116      0.0022
     67  CG2       16.4060   28.6600   44.4280 C.3   116  ILE116      0.0022
     68  CD1       13.9240   28.8030   46.3050 C.3   116  ILE116      0.0001
     69  N         24.0060   32.7510   43.8260 N.3   120  ALA120     -0.1245
     70  CA        23.6490   34.1000   44.2760 C.3   120  ALA120      0.1562
     71  C         24.1060   35.1200   43.2330 C.2   120  ALA120      0.2260
     72  O         25.2410   35.0660   42.7470 O.2   120  ALA120     -0.2867
     73  CB        24.2960   34.4030   45.6360 C.3   120  ALA120      0.0290
     74  N         28.1860   36.1780   42.7320 N.3   136  ARG136     -0.1245
     75  CA        28.7140   36.5270   44.0430 C.3   136  ARG136      0.1563
     76  C         30.2380   36.4020   44.0770 C.2   136  ARG136      0.2260
     77  O         30.9240   37.2170   44.6970 O.2   136  ARG136     -0.2867
     78  CB        28.1110   35.6180   45.1120 C.3   136  ARG136      0.0307
     79  CG        28.7260   35.8270   46.4710 C.3   136  ARG136      0.0489
     80  CD        28.0520   35.0100   47.5520 C.3   136  ARG136      0.2205
     81  NE        28.7180   35.2780   48.8210 N.pl3 136  ARG136     -0.0865
     82  CZ        29.8220   34.6640   49.2310 C.cat 136  ARG136      0.5346
     83  NH1       30.3820   33.7210   48.4820 N.pl3 136  ARG136      0.1354
     84  NH2       30.3980   35.0380   50.3690 N.pl3 136  ARG136      0.1354
     85  N         19.7000   41.6890   45.1360 N.3   168  ARG168     -0.1231
     86  CA        20.3970   40.4180   45.1120 C.3   168  ARG168      0.1694
     87  C         19.4670   39.2570   45.4210 C.2   168  ARG168      0.2593
     88  O         18.4780   39.4030   46.1410 O.2   168  ARG168     -0.2718
     89  CB        21.5470   40.4730   46.1170 C.3   168  ARG168      0.0321
     90  CG        22.5570   41.5530   45.7690 C.3   168  ARG168      0.0489
     91  CD        23.5210   41.8410   46.8970 C.3   168  ARG168      0.2205
     92  NE        24.6120   42.6860   46.4270 N.pl3 168  ARG168     -0.0865
     93  CZ        25.5820   43.1660   47.1980 C.cat 168  ARG168      0.5346
     94  NH1       25.6010   42.8930   48.4930 N.pl3 168  ARG168      0.1354
     95  NH2       26.5460   43.9020   46.6650 N.pl3 168  ARG168      0.1354
     96  N         19.7890   38.0990   44.8650 N.am  169  GLY169     -0.1942
     97  CA        18.9620   36.9380   45.0940 C.3   169  GLY169      0.2014
     98  C         19.5810   35.7150   44.4680 C.2   169  GLY169      0.2638
     99  O         20.7840   35.6910   44.2010 O.2   169  GLY169     -0.2714
    100  N         18.7580   34.7020   44.2260 N.am  170  GLU170     -0.1977
    101  CA        19.2410   33.4600   43.6370 C.3   170  GLU170      0.1602
    102  C         18.8130   33.2440   42.1880 C.2   170  GLU170      0.2287
    103  O         17.6850   33.5550   41.7970 O.2   170  GLU170     -0.2864
    104  CB        18.7550   32.2600   44.4650 C.3   170  GLU170      0.0415
    105  CG        19.7910   31.1610   44.6530 C.3   170  GLU170      0.1163
    106  CD        20.8930   31.5670   45.6170 C.2   170  GLU170      0.3649
    107  OE1       21.8730   30.8090   45.7570 O.co2 170  GLU170     -0.2457
    108  OE2       20.7770   32.6400   46.2450 O.co2 170  GLU170     -0.2457
    109  N         15.8230   38.4110   47.0100 N.3   222  TYR222     -0.1227
    110  CA        15.5020   38.5170   48.4340 C.3   222  TYR222      0.1736
    111  C         16.1930   39.6140   49.2450 C.2   222  TYR222      0.2596
    112  O         15.9710   39.7140   50.4510 O.2   222  TYR222     -0.2718
    113  CB        15.7170   37.1620   49.1290 C.3   222  TYR222      0.0548
    114  CG        17.0560   36.5280   48.8360 C.ar  222  TYR222     -0.0200
    115  CD1       17.1580   35.4170   47.9980 C.ar  222  TYR222     -0.0009
    116  CD2       18.2300   37.0750   49.3490 C.ar  222  TYR222     -0.0009
    117  CE1       18.3970   34.8700   47.6770 C.ar  222  TYR222      0.0417
    118  CE2       19.4770   36.5430   49.0290 C.ar  222  TYR222      0.0417
    119  CZ        19.5550   35.4430   48.1950 C.ar  222  TYR222      0.1957
    120  OH        20.7890   34.9310   47.8770 O.3   222  TYR222     -0.2866
    121  N         17.0260   40.4350   48.6130 N.am  223  THR223     -0.1953
    122  CA        17.6760   41.5190   49.3540 C.3   223  THR223      0.1897
    123  C         18.1450   42.6760   48.4800 C.2   223  THR223      0.2313
    124  O         18.1080   42.6060   47.2550 O.2   223  THR223     -0.2863
    125  CB        18.8810   41.0070   50.2070 C.3   223  THR223      0.1794
    126  OG1       19.3200   42.0560   51.0780 O.3   223  THR223     -0.2208
    127  CG2       20.0460   40.5910   49.3300 C.3   223  THR223      0.0378
    128  N         16.1240   29.6150   55.2460 N.3   284  VAL284     -0.1245
    129  CA        16.9340   30.7270   55.7310 C.3   284  VAL284      0.1561
    130  C         16.0670   31.5130   56.7130 C.2   284  VAL284      0.2260
    131  O         14.9600   31.9380   56.3830 O.2   284  VAL284     -0.2867
    132  CB        17.3930   31.6720   54.5960 C.3   284  VAL284      0.0252
    133  CG1       18.3620   32.7200   55.1540 C.3   284  VAL284      0.0019
    134  CG2       18.0600   30.8720   53.4840 C.3   284  VAL284      0.0019
    135  N         15.7550   34.8290   58.9840 N.3   286  LYS286     -0.1245
    136  CA        16.2930   36.1760   59.0920 C.3   286  LYS286      0.1561
    137  C         15.5890   37.0490   60.1210 C.2   286  LYS286      0.2260
    138  O         14.3580   37.0880   60.1690 O.2   286  LYS286     -0.2867
    139  CB        16.2080   36.8620   57.7210 C.3   286  LYS286      0.0271
    140  CG        16.7850   36.0230   56.5800 C.3   286  LYS286      0.0035
    141  CD        16.5240   36.6480   55.2180 C.3   286  LYS286      0.0206
    142  CE        17.1010   35.7850   54.1080 C.3   286  LYS286      0.1093
    143  NZ        16.8880   36.3950   52.7650 N.3   286  LYS286     -0.1314
    144  N         27.7450   41.7860   61.6500 N.3   298  PHE298     -0.1241
    145  CA        28.3010   40.6480   60.9260 C.3   298  PHE298      0.1605
    146  C         29.5990   40.1400   61.5240 C.2   298  PHE298      0.2264
    147  O         30.3780   40.9070   62.0910 O.2   298  PHE298     -0.2867
    148  CB        28.6610   41.0220   59.4820 C.3   298  PHE298      0.0534
    149  CG        27.5690   41.6800   58.7160 C.ar  298  PHE298     -0.0203
    150  CD1       27.2710   43.0170   58.9190 C.ar  298  PHE298     -0.0042
    151  CD2       26.8500   40.9660   57.7680 C.ar  298  PHE298     -0.0042
    152  CE1       26.2670   43.6380   58.1830 C.ar  298  PHE298     -0.0003
    153  CE2       25.8430   41.5730   57.0270 C.ar  298  PHE298     -0.0003
    154  CZ        25.5510   42.9110   57.2340 C.ar  298  PHE298     -0.0000
    155  N         26.3350   37.3760   58.3910 N.3   303  PRO303     -0.2116
    156  CA        25.6140   38.2200   59.3430 C.3   303  PRO303      0.1372
    157  C         25.2670   37.4010   60.5920 C.2   303  PRO303      0.2244
    158  O         25.1280   36.1740   60.5240 O.2   303  PRO303     -0.2868
    159  CB        24.3690   38.6550   58.5570 C.3   303  PRO303      0.0268
    160  CG        24.1480   37.5240   57.5960 C.3   303  PRO303      0.0207
    161  CD        25.5600   37.1840   57.1490 C.3   303  PRO303      0.0892
    162  N         22.6000   38.0750   62.1680 N.3   305  TRP305     -0.1227
    163  CA        21.1420   38.1470   62.1540 C.3   305  TRP305      0.1737
    164  C         20.4120   37.1660   61.2360 C.2   305  TRP305      0.2595
    165  O         19.2320   37.3440   60.9340 O.2   305  TRP305     -0.2718
    166  CB        20.7010   39.5780   61.8260 C.3   305  TRP305      0.0564
    167  CG        21.4030   40.2000   60.6350 C.ar  305  TRP305      0.0003
    168  CD1       22.5000   41.0130   60.6610 C.ar  305  TRP305      0.0946
    169  CD2       21.0320   40.0720   59.2550 C.ar  305  TRP305      0.0152
    170  NE1       22.8320   41.4040   59.3860 N.ar  305  TRP305     -0.2442
    171  CE2       21.9470   40.8440   58.5030 C.ar  305  TRP305      0.0810
    172  CE3       20.0090   39.3820   58.5800 C.ar  305  TRP305      0.0012
    173  CZ2       21.8740   40.9480   57.1060 C.ar  305  TRP305      0.0191
    174  CZ3       19.9340   39.4830   57.1900 C.ar  305  TRP305      0.0001
    175  CH2       20.8640   40.2630   56.4690 C.ar  305  TRP305      0.0015
    176  N         21.1000   36.1230   60.7970 N.am  306  ALA306     -0.1980
    177  CA        20.4770   35.1340   59.9330 C.3   306  ALA306      0.1597
    178  C         21.1870   33.8020   60.0830 C.2   306  ALA306      0.2287
    179  O         22.3480   33.7460   60.4870 O.2   306  ALA306     -0.2864
    180  CB        20.5310   35.5910   58.4720 C.3   306  ALA306      0.0319
@<TRIPOS>BOND
     1   103   102    2
     2   102   101    1
     3    74    75    1
     4    72    71    2
     5    71    70    1
     6   101   100    1
     7   101   104    1
     8    69    70    1
     9    75    76    1
    10    75    78    1
    11    76    77    2
    12    99    98    2
    13   100    98   am
    14    70    73    1
    15    67    65    1
    16   104   105    1
    17    98    97    1
    18   105   106    1
    19    96    97    1
    20    96    87   am
    21    86    85    1
    22    86    87    1
    23    86    89    1
    24    78    79    1
    25    87    88    2
    26     7     8    1
    27     7     6    1
    28   106   107   ar
    29   106   108   ar
    30    90    89    1
    31    90    91    1
    32    65    66    1
    33    65    62    1
    34    66    68    1
    35    92    91    1
    36    92    93    2
    37    79    80    1
    38    63    64    2
    39    63    62    1
    40    95    93    1
    41    62    61    1
    42   109   110    1
    43     6     5    1
    44    93    94    1
    45   124   123    2
    46    80    81    1
    47   117   115   ar
    48   117   119   ar
    49   120   119    1
    50   115   114   ar
    51     5     2    1
    52   119   118   ar
    53    61    54   am
    54   110   113    1
    55   110   111    1
    56   123   122    1
    57    83    82    1
    58   121   111   am
    59   121   122    1
    60    81    82    2
    61   114   113    1
    62   114   116   ar
    63   118   116   ar
    64    55    54    2
    65    82    84    1
    66   111   112    2
    67    54    53    1
    68   127   125    1
    69   122   125    1
    70     2     1    1
    71     2     3    1
    72    50    49    1
    73     4     3    2
    74   125   126    1
    75    47    46    2
    76    48    49    1
    77    48    45    1
    78     3     9   am
    79    53    52    1
    80    53    56    1
    81    49    51    1
    82    46    52   am
    83    46    45    1
    84    60    59    1
    85    57    56    1
    86    57    58    1
    87    45    44    1
    88    12    11    2
    89     9    10    1
    90    43    41   ar
    91    44    37   am
    92    59    58    1
    93    11    10    1
    94    11    21   am
    95    39    40    1
    96    39    36    1
    97    41    40    1
    98    41    42   ar
    99   143   142    1
   100    10    13    1
   101    26    25    1
   102    37    36    1
   103    37    38    2
   104    22    25    1
   105    22    21    1
   106    22    23    1
   107    36    35    1
   108   134   132    1
   109    33    32    1
   110   142   141    1
   111    13    14    1
   112    23    27   am
   113    23    24    2
   114    27    28    1
   115    15    14   ar
   116    15    17   ar
   117    32    31    1
   118    32    34    1
   119   132   133    1
   120   132   129    1
   121    14    16   ar
   122    17    19   ar
   123    31    28    1
   124   141   140    1
   125   128   129    1
   126    28    29    1
   127    16    18   ar
   128   129   130    1
   129    19    18   ar
   130    19    20    1
   131    30    29    2
   132   131   130    2
   133   175   173   ar
   134   175   174   ar
   135   140   139    1
   136   153   154   ar
   137   153   151   ar
   138   173   171   ar
   139   161   160    1
   140   161   155    1
   141   174   172   ar
   142   154   152   ar
   143   160   159    1
   144   139   136    1
   145   151   149   ar
   146   152   150   ar
   147   155   156    1
   148   180   177    1
   149   171   169   ar
   150   171   170   ar
   151   159   156    1
   152   172   169   ar
   153   149   150   ar
   154   149   148    1
   155   135   136    1
   156   136   137    1
   157   169   167   ar
   158   156   157    1
   159   170   168   ar
   160   148   145    1
   161   177   178    1
   162   177   176    1
   163   178   179    2
   164   137   138    2
   165   158   157    2
   166   167   168   ar
   167   167   166    1
   168   176   164   am
   169   145   146    1
   170   145   144    1
   171   165   164    2
   172   164   163    1
   173   146   147    2
   174   166   163    1
   175   163   162    1
