@<TRIPOS>MOLECULE
tmp/3babA01.pdb
 188 182 0 0 0
SMALL
GASTEIGER

@<TRIPOS>ATOM
      1  N         29.0180   40.3970   49.6360 N.3    81  MET81      -0.1230
      2  CA        28.0040   39.3650   49.5290 C.3    81  MET81       0.1702
      3  C         28.4670   38.3010   50.5260 C.2    81  MET81       0.2592
      4  O         29.1660   37.3510   50.1760 O.2    81  MET81      -0.2718
      5  CB        27.9340   38.8130   48.0970 C.3    81  MET81       0.0401
      6  CG        27.3020   39.7900   47.1180 C.3    81  MET81       0.0596
      7  SD        27.0750   39.2020   45.4340 S.3    81  MET81      -0.1393
      8  CE        25.6950   38.0980   45.6120 C.3    81  MET81       0.0692
      9  N         28.0870   38.4970   51.7820 N.am   82  TYR82      -0.1962
     10  CA        28.4690   37.6010   52.8640 C.3    82  TYR82       0.1771
     11  C         28.0210   36.1690   52.6800 C.2    82  TYR82       0.2620
     12  O         27.2360   35.8560   51.7810 O.2    82  TYR82      -0.2715
     13  CB        27.9030   38.0990   54.1890 C.3    82  TYR82       0.0574
     14  CG        28.6020   39.3050   54.7570 C.ar   82  TYR82      -0.0198
     15  CD1       28.2650   40.5990   54.3510 C.ar   82  TYR82      -0.0009
     16  CD2       29.6090   39.1520   55.7100 C.ar   82  TYR82      -0.0009
     17  CE1       28.9150   41.7080   54.8900 C.ar   82  TYR82       0.0417
     18  CE2       30.2630   40.2520   56.2500 C.ar   82  TYR82       0.0417
     19  CZ        29.9140   41.5190   55.8420 C.ar   82  TYR82       0.1957
     20  OH        30.5610   42.5870   56.4150 O.3    82  TYR82      -0.2866
     21  N         28.5360   35.3040   53.5510 N.am   83  SER83      -0.1936
     22  CA        28.1730   33.8890   53.5520 C.3    83  SER83       0.2055
     23  C         27.1060   33.7210   54.6330 C.2    83  SER83       0.2642
     24  O         26.7200   34.6890   55.2920 O.2    83  SER83      -0.2714
     25  CB        29.3780   33.0080   53.8960 C.3    83  SER83       0.2130
     26  OG        30.4680   33.2850   53.0400 O.3    83  SER83      -0.2179
     27  N         26.6400   32.4930   54.8180 N.am   84  LEU84      -0.1977
     28  CA        25.6230   32.2080   55.8210 C.3    84  LEU84       0.1596
     29  C         26.1070   31.1740   56.8070 C.2    84  LEU84       0.2287
     30  O         26.6950   30.1730   56.4060 O.2    84  LEU84      -0.2864
     31  CB        24.3500   31.6670   55.1700 C.3    84  LEU84       0.0297
     32  CG        23.2530   32.6130   54.7110 C.3    84  LEU84       0.0022
     33  CD1       22.1910   31.7880   54.0110 C.3    84  LEU84       0.0001
     34  CD2       22.6680   33.3580   55.9000 C.3    84  LEU84       0.0001
     35  N         12.7590   32.1490   54.6090 N.3   113  GLU113     -0.1231
     36  CA        12.7540   31.9110   53.1710 C.3   113  GLU113      0.1699
     37  C         13.4000   30.5650   52.8750 C.2   113  GLU113      0.2592
     38  O         14.2500   30.1040   53.6320 O.2   113  GLU113     -0.2718
     39  CB        13.5470   33.0000   52.4630 C.3   113  GLU113      0.0402
     40  CG        13.2020   34.3920   52.9180 C.3   113  GLU113      0.1161
     41  CD        14.1960   35.4100   52.4290 C.2   113  GLU113      0.3649
     42  OE1       14.2950   36.4790   53.0710 O.co2 113  GLU113     -0.2457
     43  OE2       14.8720   35.1450   51.4050 O.co2 113  GLU113     -0.2457
     44  N         12.9980   29.9410   51.7710 N.am  114  LEU114     -0.1966
     45  CA        13.5540   28.6510   51.3700 C.3   114  LEU114      0.1728
     46  C         14.9610   28.8700   50.8330 C.2   114  LEU114      0.2616
     47  O         15.2160   29.8550   50.1350 O.2   114  LEU114     -0.2715
     48  CB        12.6840   28.0040   50.2830 C.3   114  LEU114      0.0311
     49  CG        11.2090   27.8280   50.6540 C.3   114  LEU114      0.0022
     50  CD1       10.4440   27.1870   49.5170 C.3   114  LEU114      0.0001
     51  CD2       11.1170   26.9820   51.9070 C.3   114  LEU114      0.0001
     52  N         15.8680   27.9560   51.1610 N.am  115  LYS115     -0.1963
     53  CA        17.2520   28.0440   50.7100 C.3   115  LYS115      0.1728
     54  C         17.3280   27.4610   49.2930 C.2   115  LYS115      0.2616
     55  O         17.5390   26.2610   49.1010 O.2   115  LYS115     -0.2715
     56  CB        18.1540   27.2740   51.6870 C.3   115  LYS115      0.0311
     57  CG        19.6440   27.5400   51.5640 C.3   115  LYS115      0.0038
     58  CD        20.4060   26.7790   52.6470 C.3   115  LYS115      0.0206
     59  CE        21.9110   26.8640   52.4480 C.3   115  LYS115      0.1093
     60  NZ        22.3450   26.3270   51.1160 N.3   115  LYS115     -0.1314
     61  N         17.1340   28.3390   48.3110 N.am  116  ILE116     -0.1977
     62  CA        17.1380   27.9890   46.8900 C.3   116  ILE116      0.1596
     63  C         18.4840   27.4540   46.4210 C.2   116  ILE116      0.2287
     64  O         19.5240   28.0500   46.6860 O.2   116  ILE116     -0.2864
     65  CB        16.7620   29.2300   46.0150 C.3   116  ILE116      0.0276
     66  CG1       15.4340   29.8350   46.4980 C.3   116  ILE116      0.0022
     67  CG2       16.6730   28.8370   44.5390 C.3   116  ILE116      0.0022
     68  CD1       14.2730   28.8710   46.4670 C.3   116  ILE116      0.0001
     69  N         20.9620   27.2600   43.8550 N.3   118  GLY118     -0.1210
     70  CA        21.3710   27.8790   42.6150 C.3   118  GLY118      0.1956
     71  C         22.6340   28.6870   42.7980 C.2   118  GLY118      0.2612
     72  O         23.5130   28.3160   43.5730 O.2   118  GLY118     -0.2717
     73  N         22.7130   29.8080   42.0910 N.am  119  LEU119     -0.1965
     74  CA        23.8770   30.6840   42.1450 C.3   119  LEU119      0.1728
     75  C         23.4720   32.1000   42.5610 C.2   119  LEU119      0.2616
     76  O         22.5760   32.6990   41.9600 O.2   119  LEU119     -0.2715
     77  CB        24.5360   30.7300   40.7680 C.3   119  LEU119      0.0311
     78  CG        25.9610   31.2620   40.7630 C.3   119  LEU119      0.0022
     79  CD1       26.8730   30.1490   41.2540 C.3   119  LEU119      0.0001
     80  CD2       26.3610   31.7220   39.3670 C.3   119  LEU119      0.0001
     81  N         24.1330   32.6280   43.5870 N.am  120  ALA120     -0.1977
     82  CA        23.8340   33.9720   44.0700 C.3   120  ALA120      0.1597
     83  C         24.3640   35.0000   43.0890 C.2   120  ALA120      0.2287
     84  O         25.5200   34.9380   42.6650 O.2   120  ALA120     -0.2864
     85  CB        24.4500   34.1920   45.4400 C.3   120  ALA120      0.0319
     86  N         28.4180   36.0150   42.5750 N.3   136  ARG136     -0.1245
     87  CA        28.8940   36.3220   43.9130 C.3   136  ARG136      0.1563
     88  C         30.4090   36.2500   43.9910 C.2   136  ARG136      0.2260
     89  O         31.0360   37.0360   44.7030 O.2   136  ARG136     -0.2867
     90  CB        28.2900   35.3550   44.9350 C.3   136  ARG136      0.0307
     91  CG        28.9100   35.4890   46.3100 C.3   136  ARG136      0.0489
     92  CD        28.0710   34.8490   47.3840 C.3   136  ARG136      0.2205
     93  NE        28.6950   35.0330   48.6880 N.pl3 136  ARG136     -0.0865
     94  CZ        29.7460   34.3460   49.1210 C.cat 136  ARG136      0.5346
     95  NH1       30.2950   33.4140   48.3550 N.pl3 136  ARG136      0.1354
     96  NH2       30.2600   34.6020   50.3160 N.pl3 136  ARG136      0.1354
     97  N         18.8550   34.6690   43.9350 N.3   170  GLU170     -0.1245
     98  CA        19.3330   33.3660   43.5070 C.3   170  GLU170      0.1567
     99  C         18.9110   33.0630   42.0600 C.2   170  GLU170      0.2260
    100  O         17.7540   33.2390   41.6900 O.2   170  GLU170     -0.2867
    101  CB        18.7840   32.2850   44.4470 C.3   170  GLU170      0.0388
    102  CG        19.5760   30.9890   44.4320 C.3   170  GLU170      0.1160
    103  CD        20.8540   31.0530   45.2500 C.2   170  GLU170      0.3649
    104  OE1       21.7240   30.1980   45.0300 O.co2 170  GLU170     -0.2457
    105  OE2       20.9950   31.9360   46.1210 O.co2 170  GLU170     -0.2457
    106  N         22.2290   23.1570   40.8000 N.3   197  ARG197     -0.1245
    107  CA        23.1560   24.2320   41.1440 C.3   197  ARG197      0.1563
    108  C         24.2870   24.2560   40.1210 C.2   197  ARG197      0.2260
    109  O         24.6140   25.3010   39.5660 O.2   197  ARG197     -0.2867
    110  CB        23.7450   24.0200   42.5420 C.3   197  ARG197      0.0307
    111  CG        24.4750   25.2440   43.0880 C.3   197  ARG197      0.0489
    112  CD        25.7840   24.8740   43.7620 C.3   197  ARG197      0.2205
    113  NE        26.8420   24.5460   42.8000 N.pl3 197  ARG197     -0.0865
    114  CZ        27.6530   25.4360   42.2270 C.cat 197  ARG197      0.5346
    115  NH1       27.5360   26.7260   42.5180 N.pl3 197  ARG197      0.1354
    116  NH2       28.5850   25.0360   41.3640 N.pl3 197  ARG197      0.1354
    117  N         16.1830   37.9000   46.9590 N.3   222  TYR222     -0.1227
    118  CA        16.0130   37.7870   48.4020 C.3   222  TYR222      0.1736
    119  C         16.5300   38.9520   49.2350 C.2   222  TYR222      0.2596
    120  O         16.3360   38.9630   50.4490 O.2   222  TYR222     -0.2718
    121  CB        16.6500   36.4780   48.9090 C.3   222  TYR222      0.0548
    122  CG        18.1340   36.3460   48.6090 C.ar  222  TYR222     -0.0200
    123  CD1       18.5950   35.4630   47.6350 C.ar  222  TYR222     -0.0009
    124  CD2       19.0690   37.1590   49.2530 C.ar  222  TYR222     -0.0009
    125  CE1       19.9550   35.4000   47.3010 C.ar  222  TYR222      0.0417
    126  CE2       20.4240   37.1060   48.9310 C.ar  222  TYR222      0.0417
    127  CZ        20.8650   36.2310   47.9490 C.ar  222  TYR222      0.1957
    128  OH        22.2040   36.2340   47.5840 O.3   222  TYR222     -0.2866
    129  N         17.1840   39.9290   48.6110 N.am  223  THR223     -0.1953
    130  CA        17.7010   41.0610   49.3840 C.3   223  THR223      0.1897
    131  C         17.9870   42.3580   48.6250 C.2   223  THR223      0.2313
    132  O         18.2750   42.3520   47.4340 O.2   223  THR223     -0.2863
    133  CB        19.0040   40.6740   50.1360 C.3   223  THR223      0.1794
    134  OG1       19.4290   41.7710   50.9560 O.3   223  THR223     -0.2208
    135  CG2       20.1080   40.3540   49.1550 C.3   223  THR223      0.0378
    136  N         16.3310   29.5880   55.1890 N.3   284  VAL284     -0.1245
    137  CA        17.1610   30.7080   55.6170 C.3   284  VAL284      0.1561
    138  C         16.3190   31.5490   56.5810 C.2   284  VAL284      0.2260
    139  O         15.2710   32.0960   56.2090 O.2   284  VAL284     -0.2867
    140  CB        17.6260   31.5890   54.4270 C.3   284  VAL284      0.0252
    141  CG1       18.5870   32.6570   54.9300 C.3   284  VAL284      0.0019
    142  CG2       18.3070   30.7280   53.3630 C.3   284  VAL284      0.0019
    143  N         15.9460   34.7970   58.9380 N.3   286  LYS286     -0.1245
    144  CA        16.5010   36.1390   59.0380 C.3   286  LYS286      0.1561
    145  C         15.8040   37.0120   60.0600 C.2   286  LYS286      0.2260
    146  O         14.5770   37.0300   60.1380 O.2   286  LYS286     -0.2867
    147  CB        16.4480   36.8200   57.6710 C.3   286  LYS286      0.0271
    148  CG        17.2300   36.0800   56.5970 C.3   286  LYS286      0.0035
    149  CD        16.8280   36.5310   55.2110 C.3   286  LYS286      0.0206
    150  CE        17.6410   35.8180   54.1470 C.3   286  LYS286      0.1093
    151  NZ        17.2760   36.2840   52.7910 N.3   286  LYS286     -0.1314
    152  N         27.9250   41.7290   61.6160 N.3   298  PHE298     -0.1241
    153  CA        28.4560   40.5490   60.9540 C.3   298  PHE298      0.1605
    154  C         29.7420   40.0470   61.5760 C.2   298  PHE298      0.2264
    155  O         30.5080   40.8100   62.1670 O.2   298  PHE298     -0.2867
    156  CB        28.7880   40.8350   59.4880 C.3   298  PHE298      0.0534
    157  CG        27.6880   41.4830   58.7190 C.ar  298  PHE298     -0.0203
    158  CD1       27.4210   42.8350   58.8710 C.ar  298  PHE298     -0.0042
    159  CD2       26.9290   40.7430   57.8190 C.ar  298  PHE298     -0.0042
    160  CE1       26.4030   43.4480   58.1320 C.ar  298  PHE298     -0.0003
    161  CE2       25.9170   41.3390   57.0790 C.ar  298  PHE298     -0.0003
    162  CZ        25.6510   42.6970   57.2340 C.ar  298  PHE298     -0.0000
    163  N         26.5930   37.2030   58.5320 N.3   303  PRO303     -0.2116
    164  CA        25.8180   38.0340   59.4580 C.3   303  PRO303      0.1372
    165  C         25.5070   37.2780   60.7480 C.2   303  PRO303      0.2244
    166  O         25.4160   36.0530   60.7530 O.2   303  PRO303     -0.2868
    167  CB        24.5540   38.3580   58.6540 C.3   303  PRO303      0.0268
    168  CG        24.4050   37.1730   57.7500 C.3   303  PRO303      0.0207
    169  CD        25.8310   36.9610   57.2910 C.3   303  PRO303      0.0892
    170  N         22.8320   37.9020   62.2800 N.3   305  TRP305     -0.1227
    171  CA        21.3750   37.9920   62.3030 C.3   305  TRP305      0.1737
    172  C         20.6570   37.0220   61.3740 C.2   305  TRP305      0.2595
    173  O         19.4510   37.1550   61.1370 O.2   305  TRP305     -0.2718
    174  CB        20.9290   39.4240   61.9850 C.3   305  TRP305      0.0564
    175  CG        21.6480   40.0690   60.8080 C.ar  305  TRP305      0.0003
    176  CD1       22.7220   40.9110   60.8660 C.ar  305  TRP305      0.0946
    177  CD2       21.3260   39.9260   59.4140 C.ar  305  TRP305      0.0152
    178  NE1       23.0860   41.3040   59.5990 N.ar  305  TRP305     -0.2442
    179  CE2       22.2480   40.7180   58.6900 C.ar  305  TRP305      0.0810
    180  CE3       20.3460   39.2080   58.7080 C.ar  305  TRP305      0.0012
    181  CZ2       22.2230   40.8150   57.2950 C.ar  305  TRP305      0.0191
    182  CZ3       20.3200   39.3020   57.3210 C.ar  305  TRP305      0.0001
    183  CH2       21.2570   40.1040   56.6290 C.ar  305  TRP305      0.0015
    184  N         21.3840   36.0410   60.8520 N.am  306  ALA306     -0.1980
    185  CA        20.7820   35.0530   59.9610 C.3   306  ALA306      0.1597
    186  C         21.5010   33.7190   60.0760 C.2   306  ALA306      0.2287
    187  O         22.6760   33.6620   60.4500 O.2   306  ALA306     -0.2864
    188  CB        20.8270   35.5450   58.5040 C.3   306  ALA306      0.0319
@<TRIPOS>BOND
     1    80    78    1
     2   109   108    2
     3   108   107    1
     4    78    77    1
     5    78    79    1
     6    77    74    1
     7   106   107    1
     8   107   110    1
     9   116   114    1
    10   100    99    2
    11    76    75    2
    12    99    98    1
    13    73    74    1
    14    73    71   am
    15    74    75    1
    16   114   115    1
    17   114   113    2
    18   110   111    1
    19    75    81   am
    20    86    87    1
    21    70    71    1
    22    70    69    1
    23    84    83    2
    24    71    72    2
    25   113   112    1
    26   111   112    1
    27    83    82    1
    28    98    97    1
    29    98   101    1
    30    81    82    1
    31    87    88    1
    32    87    90    1
    33    88    89    2
    34    82    85    1
    35   102   101    1
    36   102   103    1
    37    67    65    1
    38    90    91    1
    39   104   103   ar
    40   103   105   ar
    41     7     8    1
    42     7     6    1
    43    65    66    1
    44    65    62    1
    45    91    92    1
    46    63    64    2
    47    63    62    1
    48    68    66    1
    49    62    61    1
    50   117   118    1
    51     6     5    1
    52   125   123   ar
    53   125   127   ar
    54    92    93    1
    55   132   131    2
    56   128   127    1
    57   123   122   ar
    58   127   126   ar
    59     5     2    1
    60    61    54   am
    61    95    94    1
    62   118   121    1
    63   118   119    1
    64   122   121    1
    65   122   124   ar
    66   129   119   am
    67   129   130    1
    68   131   130    1
    69    93    94    2
    70   126   124   ar
    71    55    54    2
    72    94    96    1
    73   135   133    1
    74   119   120    2
    75    54    53    1
    76   130   133    1
    77    50    49    1
    78     2     1    1
    79     2     3    1
    80    47    46    2
    81   133   134    1
    82     4     3    2
    83    48    49    1
    84    48    45    1
    85     3     9   am
    86    49    51    1
    87    53    52    1
    88    53    56    1
    89    46    52   am
    90    46    45    1
    91    60    59    1
    92    45    44    1
    93    43    41   ar
    94    57    56    1
    95    57    58    1
    96    44    37   am
    97    12    11    2
    98     9    10    1
    99    41    40    1
   100    41    42   ar
   101    59    58    1
   102    39    40    1
   103    39    36    1
   104    11    10    1
   105    11    21   am
   106   151   150    1
   107    10    13    1
   108    37    36    1
   109    37    38    2
   110    26    25    1
   111    36    35    1
   112   142   140    1
   113    21    22    1
   114    22    25    1
   115    22    23    1
   116    33    32    1
   117   150   149    1
   118    13    14    1
   119    15    14   ar
   120    15    17   ar
   121   140   141    1
   122   140   137    1
   123    23    27   am
   124    23    24    2
   125    32    31    1
   126    32    34    1
   127    14    16   ar
   128    27    28    1
   129    17    19   ar
   130    31    28    1
   131   136   137    1
   132   149   148    1
   133   137   138    1
   134    16    18   ar
   135    28    29    1
   136    19    18   ar
   137    19    20    1
   138   139   138    2
   139    30    29    2
   140   148   147    1
   141   183   181   ar
   142   183   182   ar
   143   161   162   ar
   144   161   159   ar
   145   162   160   ar
   146   169   168    1
   147   169   163    1
   148   181   179   ar
   149   182   180   ar
   150   147   144    1
   151   168   167    1
   152   159   157   ar
   153   160   158   ar
   154   188   185    1
   155   163   164    1
   156   167   164    1
   157   179   177   ar
   158   179   178   ar
   159   180   177   ar
   160   157   158   ar
   161   157   156    1
   162   143   144    1
   163   144   145    1
   164   177   175   ar
   165   164   165    1
   166   156   153    1
   167   178   176   ar
   168   185   186    1
   169   185   184    1
   170   145   146    2
   171   186   187    2
   172   165   166    2
   173   175   176   ar
   174   175   174    1
   175   184   172   am
   176   153   154    1
   177   153   152    1
   178   173   172    2
   179   172   171    1
   180   154   155    2
   181   174   171    1
   182   170   171    1
