@<TRIPOS>MOLECULE
tmp/3bacA00.pdb
 160 155 0 0 0
SMALL
GASTEIGER

@<TRIPOS>ATOM
      1  N        104.9450  115.5620   75.0440 N.3     9  ILE9       -0.1231
      2  CA       104.4170  114.2280   74.7940 C.3     9  ILE9        0.1678
      3  C        102.9430  114.4440   74.5090 C.2     9  ILE9        0.2434
      4  O        102.2900  115.2570   75.1650 O.2     9  ILE9       -0.2733
      5  CB       104.5500  113.3100   76.0210 C.3     9  ILE9        0.0265
      6  CG1      106.0210  113.0940   76.3440 C.3     9  ILE9        0.0019
      7  CG2      103.8990  111.9610   75.7500 C.3     9  ILE9        0.0020
      8  CD1      106.2400  112.1790   77.5190 C.3     9  ILE9        0.0001
      9  N        102.3930  113.7210   73.5270 N.am   10  PRO10      -0.2718
     10  CA       100.9750  113.8720   73.1810 C.3    10  PRO10       0.1535
     11  C         99.9970  113.5070   74.2880 C.2    10  PRO10       0.2598
     12  O        100.3520  112.8370   75.2500 O.2    10  PRO10      -0.2715
     13  CB       100.8240  112.9570   71.9710 C.3    10  PRO10       0.0310
     14  CG       101.7980  111.8510   72.2920 C.3    10  PRO10       0.0237
     15  CD       103.0090  112.6350   72.7430 C.3    10  PRO10       0.0939
     16  N         98.7650  113.9810   74.1360 N.am   11  MET11      -0.1964
     17  CA        97.6760  113.6890   75.0610 C.3    11  MET11       0.1736
     18  C         96.6370  112.9860   74.1840 C.2    11  MET11       0.2616
     19  O         95.6950  113.6060   73.6850 O.2    11  MET11      -0.2715
     20  CB        97.0950  114.9800   75.6570 C.3    11  MET11       0.0427
     21  CG        98.0410  115.7480   76.5820 C.3    11  MET11       0.0599
     22  SD        97.2110  116.3140   78.0950 S.3    11  MET11      -0.1393
     23  CE        97.1620  117.9980   77.8950 C.3    11  MET11       0.0692
     24  N         96.8490  111.6880   73.9840 N.am   12  LEU12      -0.1963
     25  CA        95.9890  110.8490   73.1500 C.3    12  LEU12       0.1728
     26  C         94.5510  110.7510   73.6110 C.2    12  LEU12       0.2617
     27  O         94.2370  111.0470   74.7640 O.2    12  LEU12      -0.2715
     28  CB        96.5660  109.4430   73.0900 C.3    12  LEU12       0.0311
     29  CG        97.7590  109.1400   72.1820 C.3    12  LEU12       0.0022
     30  CD1       98.6500  110.3520   71.9450 C.3    12  LEU12       0.0001
     31  CD2       98.5150  107.9990   72.8360 C.3    12  LEU12       0.0001
     32  N         93.6750  110.3330   72.7020 N.am   13  SER13      -0.1936
     33  CA        92.2650  110.1580   73.0430 C.3    13  SER13       0.2055
     34  C         92.0330  108.6650   73.2280 C.2    13  SER13       0.2642
     35  O         92.9790  107.8790   73.2080 O.2    13  SER13      -0.2714
     36  CB        91.3520  110.6960   71.9370 C.3    13  SER13       0.2130
     37  OG        91.5640  110.0210   70.7130 O.3    13  SER13      -0.2179
     38  N         90.7820  108.2680   73.4040 N.am   14  LEU14      -0.1977
     39  CA        90.4760  106.8590   73.5990 C.3    14  LEU14       0.1596
     40  C         89.3430  106.3840   72.6960 C.2    14  LEU14       0.2287
     41  O         88.4780  107.1670   72.2940 O.2    14  LEU14      -0.2864
     42  CB        90.0790  106.5990   75.0610 C.3    14  LEU14       0.0297
     43  CG        91.0940  106.7000   76.2100 C.3    14  LEU14       0.0022
     44  CD1       90.3600  106.5380   77.5330 C.3    14  LEU14       0.0001
     45  CD2       92.1730  105.6190   76.0760 C.3    14  LEU14       0.0001
     46  N         89.9790  101.8190   86.0800 N.3    46  GLU46      -0.1231
     47  CA        89.7350  103.0590   86.7860 C.3    46  GLU46       0.1684
     48  C         88.5040  103.7700   86.2450 C.2    46  GLU46       0.2434
     49  O         88.1330  103.6050   85.0770 O.2    46  GLU46      -0.2733
     50  CB        90.9780  103.9540   86.7000 C.3    46  GLU46       0.0402
     51  CG        91.5120  104.1770   85.2940 C.3    46  GLU46       0.1161
     52  CD        92.9790  104.6030   85.2740 C.2    46  GLU46       0.3649
     53  OE1       93.8420  103.7470   85.5410 O.co2  46  GLU46      -0.2457
     54  OE2       93.2750  105.7870   84.9970 O.co2  46  GLU46      -0.2457
     55  N         87.8200  104.5350   87.1110 N.am   47  PRO47      -0.2718
     56  CA        86.6260  105.2600   86.6770 C.3    47  PRO47       0.1535
     57  C         87.0080  106.4370   85.8020 C.2    47  PRO47       0.2598
     58  O         88.0220  107.0790   86.0400 O.2    47  PRO47      -0.2715
     59  CB        85.9920  105.6970   87.9960 C.3    47  PRO47       0.0310
     60  CG        87.1660  105.8470   88.9090 C.3    47  PRO47       0.0237
     61  CD        87.9900  104.6310   88.5740 C.3    47  PRO47       0.0939
     62  N         86.2040  106.7050   84.7820 N.am   48  LYS48      -0.1964
     63  CA        86.4580  107.8300   83.8940 C.3    48  LYS48       0.1728
     64  C         85.6720  109.0090   84.4630 C.2    48  LYS48       0.2616
     65  O         84.4420  108.9690   84.5170 O.2    48  LYS48      -0.2715
     66  CB        85.9690  107.5040   82.4880 C.3    48  LYS48       0.0311
     67  CG        86.4380  108.4700   81.4330 C.3    48  LYS48       0.0038
     68  CD        85.8450  108.1210   80.0800 C.3    48  LYS48       0.0206
     69  CE        86.3670  109.0440   78.9990 C.3    48  LYS48       0.1093
     70  NZ        86.4230  110.4660   79.4830 N.3    48  LYS48      -0.1314
     71  N         86.3730  110.0530   84.9000 N.am   49  LEU49      -0.1977
     72  CA        85.6970  111.2050   85.4880 C.3    49  LEU49       0.1596
     73  C         85.2670  112.2400   84.4680 C.2    49  LEU49       0.2287
     74  O         85.9580  112.4830   83.4770 O.2    49  LEU49      -0.2864
     75  CB        86.5810  111.8680   86.5500 C.3    49  LEU49       0.0297
     76  CG        87.0990  111.0140   87.7170 C.3    49  LEU49       0.0022
     77  CD1       87.1580  111.8680   88.9700 C.3    49  LEU49       0.0001
     78  CD2       86.1950  109.8180   87.9520 C.3    49  LEU49       0.0001
     79  N         99.1860  113.6950   84.5970 N.3   104  ARG104     -0.1245
     80  CA        97.9980  113.9410   83.7950 C.3   104  ARG104      0.1563
     81  C         96.7460  113.3970   84.4550 C.2   104  ARG104      0.2260
     82  O         96.7600  112.3230   85.0550 O.2   104  ARG104     -0.2867
     83  CB        98.2130  113.3410   82.4170 C.3   104  ARG104      0.0307
     84  CG        99.4810  113.8870   81.8070 C.3   104  ARG104      0.0489
     85  CD        99.7890  113.2580   80.5120 C.3   104  ARG104      0.2205
     86  NE       100.6670  114.1240   79.7510 N.pl3 104  ARG104     -0.0865
     87  CZ       100.9170  113.9600   78.4600 C.cat 104  ARG104      0.5346
     88  NH1      101.7280  114.7940   77.8290 N.pl3 104  ARG104      0.1354
     89  NH2      100.3530  112.9590   77.8020 N.pl3 104  ARG104      0.1354
     90  N         92.1310  114.3580   85.3580 N.3   106  GLU106     -0.1245
     91  CA        90.8920  115.1040   85.1820 C.3   106  GLU106      0.1567
     92  C         90.7000  116.1450   86.2620 C.2   106  GLU106      0.2260
     93  O         90.9070  115.8840   87.4500 O.2   106  GLU106     -0.2867
     94  CB        89.6810  114.1580   85.2110 C.3   106  GLU106      0.0388
     95  CG        89.4750  113.3070   83.9700 C.3   106  GLU106      0.1160
     96  CD        89.1160  114.1410   82.7570 C.2   106  GLU106      0.3649
     97  OE1       88.2360  115.0170   82.8850 O.co2 106  GLU106     -0.2457
     98  OE2       89.7050  113.9250   81.6760 O.co2 106  GLU106     -0.2457
     99  N         95.6640  110.2510   86.4500 N.3   158  TYR158     -0.1227
    100  CA        95.5070  108.9550   85.8050 C.3   158  TYR158      0.1740
    101  C         96.6890  108.5420   84.9250 C.2   158  TYR158      0.2635
    102  O         96.6690  107.4810   84.2980 O.2   158  TYR158     -0.2714
    103  CB        94.2150  108.9330   84.9780 C.3   158  TYR158      0.0548
    104  CG        94.1180  109.9580   83.8580 C.ar  158  TYR158     -0.0200
    105  CD1       92.9840  110.7660   83.7370 C.ar  158  TYR158     -0.0009
    106  CD2       95.1210  110.0890   82.8870 C.ar  158  TYR158     -0.0009
    107  CE1       92.8420  111.6720   82.6820 C.ar  158  TYR158      0.0417
    108  CE2       94.9880  110.9960   81.8240 C.ar  158  TYR158      0.0417
    109  CZ        93.8400  111.7770   81.7340 C.ar  158  TYR158      0.1957
    110  OH        93.6450  112.6390   80.6870 O.3   158  TYR158     -0.2866
    111  N         97.7210  109.3700   84.8630 N.am  159  GLY159     -0.1718
    112  CA        98.8530  109.0160   84.0310 C.2   159  GLY159      0.1480
    113  C        100.0660  109.9160   84.1400 C.2   159  GLY159      0.2820
    114  O        100.0940  110.8970   84.8980 O.2   159  GLY159     -0.2669
    115  N        101.0820  109.5730   83.3590 N.am  160  ILE160     -0.1943
    116  CA       102.3250  110.3220   83.3430 C.3   160  ILE160      0.1599
    117  C        102.7440  110.6250   81.9070 C.2   160  ILE160      0.2287
    118  O        102.4640  109.8550   80.9890 O.2   160  ILE160     -0.2864
    119  CB       103.4500  109.5150   84.0450 C.3   160  ILE160      0.0276
    120  CG1      103.0810  109.2840   85.5140 C.3   160  ILE160      0.0022
    121  CG2      104.7810  110.2490   83.9360 C.3   160  ILE160      0.0022
    122  CD1      104.0770  108.4270   86.2940 C.3   160  ILE160      0.0001
    123  N         87.6430  103.7080   82.2080 N.3   221  VAL221     -0.1245
    124  CA        88.7120  103.4990   81.2500 C.3   221  VAL221      0.1561
    125  C         89.4160  102.2160   81.6730 C.2   221  VAL221      0.2260
    126  O         89.7440  102.0300   82.8470 O.2   221  VAL221     -0.2867
    127  CB        89.7040  104.6720   81.2420 C.3   221  VAL221      0.0252
    128  CG1       90.8010  104.4170   80.2130 C.3   221  VAL221      0.0019
    129  CG2       88.9630  105.9590   80.9210 C.3   221  VAL221      0.0019
    130  N         92.6580   99.7500   81.0400 N.3   223  LYS223     -0.1245
    131  CA        93.9970   99.7700   80.4810 C.3   223  LYS223      0.1561
    132  C         94.7440   98.4880   80.8110 C.2   223  LYS223      0.2260
    133  O         94.4830   97.8720   81.8410 O.2   223  LYS223     -0.2867
    134  CB        94.7620  100.9620   81.0680 C.3   223  LYS223      0.0271
    135  CG        93.9240  102.2170   81.2800 C.3   223  LYS223      0.0035
    136  CD        94.7340  103.3050   81.9630 C.3   223  LYS223      0.0206
    137  CE        93.9310  104.5840   82.1840 C.3   223  LYS223      0.1093
    138  NZ        94.7930  105.7090   82.6700 N.3   223  LYS223     -0.1314
    139  N        100.1170  101.8500   69.3580 N.3   235  PHE235     -0.1241
    140  CA        99.1820  102.9730   69.2680 C.3   235  PHE235      0.1605
    141  C         98.4210  103.0430   67.9430 C.2   235  PHE235      0.2264
    142  O         99.0270  103.1330   66.8780 O.2   235  PHE235     -0.2867
    143  CB        99.9320  104.2940   69.4720 C.3   235  PHE235      0.0534
    144  CG       100.5390  104.4370   70.8330 C.ar  235  PHE235     -0.0203
    145  CD1      101.7040  103.7570   71.1650 C.ar  235  PHE235     -0.0042
    146  CD2       99.9250  105.2220   71.7980 C.ar  235  PHE235     -0.0042
    147  CE1      102.2470  103.8550   72.4390 C.ar  235  PHE235     -0.0003
    148  CE2      100.4560  105.3280   73.0710 C.ar  235  PHE235     -0.0003
    149  CZ       101.6200  104.6430   73.3960 C.ar  235  PHE235     -0.0000
    150  N        102.9910  112.7920   59.6380 N.3   241  ARG241     -0.1245
    151  CA       103.7390  114.0080   59.9330 C.3   241  ARG241      0.1563
    152  C        104.3220  114.5610   58.6380 C.2   241  ARG241      0.2260
    153  O        104.6820  115.7350   58.5570 O.2   241  ARG241     -0.2867
    154  CB       104.8900  113.7380   60.8970 C.3   241  ARG241      0.0307
    155  CG       104.4950  113.4570   62.3170 C.3   241  ARG241      0.0489
    156  CD       105.6050  113.9230   63.2480 C.3   241  ARG241      0.2205
    157  NE       105.5160  113.2990   64.5620 N.pl3 241  ARG241     -0.0865
    158  CZ       105.7360  112.0050   64.7780 C.cat 241  ARG241      0.5346
    159  NH1      106.0600  111.2050   63.7690 N.pl3 241  ARG241      0.1354
    160  NH2      105.6190  111.5050   66.0000 N.pl3 241  ARG241      0.1354
@<TRIPOS>BOND
     1   153   152    2
     2   152   151    1
     3   150   151    1
     4   151   154    1
     5   154   155    1
     6   155   156    1
     7   156   157    1
     8   159   158    1
     9   157   158    2
    10   158   160    1
    11   142   141    2
    12   141   140    1
    13   140   139    1
    14   140   143    1
    15   143   144    1
    16    37    36    1
    17   144   145   ar
    18   144   146   ar
    19   145   147   ar
    20   146   148   ar
    21    36    33    1
    22    30    29    1
    23    13    14    1
    24    13    10    1
    25    29    31    1
    26    29    28    1
    27    14    15    1
    28    41    40    2
    29   147   149   ar
    30    40    39    1
    31    32    33    1
    32    32    26   am
    33    15     9    1
    34    33    34    1
    35   148   149   ar
    36    28    25    1
    37    25    26    1
    38    25    24    1
    39    10     9    1
    40    10    11    1
    41    35    34    2
    42    34    38   am
    43    38    39    1
    44     9     3   am
    45    39    42    1
    46    26    27    2
    47    19    18    2
    48    24    18   am
    49    16    11   am
    50    16    17    1
    51    18    17    1
    52    11    12    2
    53     3     2    1
    54     3     4    2
    55     2     1    1
    56     2     5    1
    57    17    20    1
    58    42    43    1
    59    20    21    1
    60     7     5    1
    61     5     6    1
    62    45    43    1
    63    43    44    1
    64     6     8    1
    65    21    22    1
    66    89    87    1
    67    88    87    1
    68    23    22    1
    69    87    86    2
    70    69    70    1
    71    69    68    1
    72    86    85    1
    73    68    67    1
    74   128   127    1
    75   131   132    1
    76   131   130    1
    77   131   134    1
    78    85    84    1
    79   110   109    1
    80   132   133    2
    81   129   127    1
    82   118   117    2
    83   134   135    1
    84   127   124    1
    85   124   125    1
    86   124   123    1
    87   135   136    1
    88    67    66    1
    89   125   126    2
    90    98    96   ar
    91   109   108   ar
    92   109   107   ar
    93    84    83    1
    94   108   106   ar
    95   117   116    1
    96   136   137    1
    97   137   138    1
    98    83    80    1
    99    66    63    1
   100   107   105   ar
   101    96    97   ar
   102    96    95    1
   103   106   104   ar
   104   116   115    1
   105   116   119    1
   106   115   113   am
   107    74    73    2
   108   105   104   ar
   109    80    81    1
   110    80    79    1
   111   104   103    1
   112    63    64    1
   113    63    62    1
   114   121   119    1
   115    95    94    1
   116   112   113    1
   117   112   111    2
   118   119   120    1
   119   113   114    2
   120   102   101    2
   121    81    82    2
   122    64    65    2
   123    64    71   am
   124    73    72    1
   125    62    57   am
   126   111   101    1
   127    71    72    1
   128   101   100    1
   129   103   100    1
   130    54    52   ar
   131    49    48    2
   132    91    94    1
   133    91    90    1
   134    91    92    1
   135    52    51    1
   136    52    53   ar
   137    51    50    1
   138    72    75    1
   139   120   122    1
   140    57    58    2
   141    57    56    1
   142   100    99    1
   143    46    47    1
   144    48    47    1
   145    48    55   am
   146    92    93    2
   147    75    76    1
   148    56    55    1
   149    56    59    1
   150    50    47    1
   151    55    61    1
   152    76    78    1
   153    76    77    1
   154    59    60    1
   155    61    60    1
