@<TRIPOS>MOLECULE
tmp/3bafA00.pdb
 161 154 0 0 0
SMALL
GASTEIGER

@<TRIPOS>ATOM
      1  N        -26.4730   14.6040   32.2960 N.3     9  LEU9       -0.1231
      2  CA       -25.6600   14.0500   31.1190 C.3     9  LEU9        0.1678
      3  C        -24.1390   14.2210   31.2980 C.2     9  LEU9        0.2434
      4  O        -23.7230   15.1490   32.0150 O.2     9  LEU9       -0.2733
      5  CB       -26.0530   14.7500   29.7570 C.3     9  LEU9        0.0284
      6  CG       -27.5070   14.6710   29.1630 C.3     9  LEU9        0.0019
      7  CD1      -27.8520   15.7360   28.0780 C.3     9  LEU9        0.0001
      8  CD2      -27.9030   13.2180   28.6090 C.3     9  LEU9        0.0001
      9  N        -23.3160   13.3870   30.6160 N.am   10  PRO10      -0.2718
     10  CA       -21.8470   13.6170   30.5320 C.3    10  PRO10       0.1535
     11  C        -21.5000   15.0640   30.0680 C.2    10  PRO10       0.2599
     12  O        -22.1760   15.5770   29.1640 O.2    10  PRO10      -0.2715
     13  CB       -21.3560   12.5290   29.5430 C.3    10  PRO10       0.0310
     14  CG       -22.6150   12.0610   28.8460 C.3    10  PRO10       0.0237
     15  CD       -23.7310   12.1910   29.8570 C.3    10  PRO10       0.0939
     16  N        -20.5550   15.7590   30.7410 N.am   11  GLY11      -0.1941
     17  CA       -20.3020   17.2090   30.5210 C.3    11  GLY11       0.2014
     18  C        -21.1240   18.3380   31.1690 C.2    11  GLY11       0.2640
     19  O        -20.7670   19.5220   30.9740 O.2    11  GLY11      -0.2714
     20  N        -22.2230   18.0050   31.8910 N.am   12  SER12      -0.1935
     21  CA       -22.9830   18.9750   32.7580 C.3    12  SER12       0.2055
     22  C        -22.1570   19.5190   34.0110 C.2    12  SER12       0.2644
     23  O        -22.5430   20.5350   34.5590 O.2    12  SER12      -0.2714
     24  CB       -24.4020   18.4190   33.2310 C.3    12  SER12       0.2130
     25  OG       -24.2760   17.1780   33.9860 O.3    12  SER12      -0.2179
     26  N        -21.0920   18.8450   34.4600 N.am   13  GLY13      -0.1939
     27  CA       -20.2480   19.2470   35.6510 C.3    13  GLY13       0.2014
     28  C        -20.3450   18.4560   37.0030 C.2    13  GLY13       0.2642
     29  O        -19.8600   18.9340   38.0540 O.2    13  GLY13      -0.2714
     30  N        -20.9700   17.2590   37.0370 N.am   14  LYS14      -0.1917
     31  CA       -21.0500   16.3910   38.3000 C.3    14  LYS14       0.1944
     32  C        -19.6940   16.2430   39.0990 C.2    14  LYS14       0.2659
     33  O        -19.6840   16.4580   40.3280 O.2    14  LYS14      -0.2711
     34  CB       -21.6640   14.9730   38.0050 C.2    14  LYS14      -0.0002
     35  CG       -23.1300   14.9070   37.4160 C.2    14  LYS14      -0.0270
     36  CD       -23.6900   13.4470   36.9570 C.3    14  LYS14       0.0462
     37  CE       -22.7790   12.5470   35.9930 C.3    14  LYS14       0.1140
     38  NZ       -22.6960   13.1250   34.5350 N.3    14  LYS14      -0.1310
     39  N        -18.5670   15.8290   38.4920 N.am   15  SER15      -0.1933
     40  CA       -17.3000   15.7090   39.3030 C.3    15  SER15       0.2055
     41  C        -16.6400   17.0650   39.7750 C.2    15  SER15       0.2644
     42  O        -16.0570   17.1020   40.8740 O.2    15  SER15      -0.2714
     43  CB       -16.2100   14.9090   38.5770 C.3    15  SER15       0.2130
     44  OG       -16.6790   13.6290   38.1890 O.3    15  SER15      -0.2179
     45  N        -16.7470   18.1230   38.9270 N.am   16  THR16      -0.1936
     46  CA       -16.1530   19.4740   39.0830 C.3    16  THR16       0.2028
     47  C        -16.8860   20.2660   40.1490 C.2    16  THR16       0.2642
     48  O        -16.2340   20.7530   41.0940 O.2    16  THR16      -0.2714
     49  CB       -16.0580   20.2780   37.6890 C.3    16  THR16       0.1808
     50  OG1      -15.1720   19.5790   36.7560 O.3    16  THR16      -0.2208
     51  CG2      -15.5250   21.7210   37.9070 C.3    16  THR16       0.0379
     52  N        -18.2060   20.4010   40.0110 N.am   17  ILE17      -0.1977
     53  CA       -19.1080   21.0410   41.0170 C.3    17  ILE17       0.1596
     54  C        -19.1090   20.2610   42.3800 C.2    17  ILE17       0.2287
     55  O        -19.0930   20.9120   43.4460 O.2    17  ILE17      -0.2864
     56  CB       -20.5840   21.3090   40.4740 C.3    17  ILE17       0.0276
     57  CG1      -20.6060   22.0780   39.1220 C.3    17  ILE17       0.0022
     58  CG2      -21.5780   21.9190   41.5640 C.3    17  ILE17       0.0022
     59  CD1      -19.9120   23.5820   39.1680 C.3    17  ILE17       0.0001
     60  N        -18.4260    6.1760   40.0850 N.3    33  ASP33      -0.1239
     61  CA       -17.5740    5.5740   38.9900 C.3    33  ASP33       0.1674
     62  C        -16.1860    5.1430   39.4720 C.2    33  ASP33       0.2266
     63  O        -15.7140    4.0890   39.0490 O.2    33  ASP33      -0.2867
     64  CB       -17.3160    6.5000   37.7500 C.3    33  ASP33       0.1410
     65  CG       -18.5730    6.7970   36.8840 C.2    33  ASP33       0.3668
     66  OD1      -19.4220    5.8770   36.7030 O.co2  33  ASP33      -0.2456
     67  OD2      -18.6870    7.9490   36.3630 O.co2  33  ASP33      -0.2456
     68  N        -23.2450   10.7240   41.1760 N.3    77  LEU77      -0.1231
     69  CA       -23.7160    9.5100   40.3990 C.3    77  LEU77       0.1693
     70  C        -23.2090    9.3520   38.8960 C.2    77  LEU77       0.2593
     71  O        -23.0740   10.3470   38.2140 O.2    77  LEU77      -0.2718
     72  CB       -25.2800    9.5150   40.4190 C.3    77  LEU77       0.0284
     73  CG       -26.1030    8.7480   41.4850 C.3    77  LEU77       0.0019
     74  CD1      -25.4800    8.7970   42.9610 C.3    77  LEU77       0.0001
     75  CD2      -27.6770    8.8430   41.4230 C.3    77  LEU77       0.0001
     76  N        -22.9080    8.1580   38.3750 N.am   78  GLY78      -0.1942
     77  CA       -22.7360    7.9780   36.9040 C.3    78  GLY78       0.2014
     78  C        -23.8790    8.4790   35.9940 C.2    78  GLY78       0.2639
     79  O        -25.0430    8.5490   36.4190 O.2    78  GLY78      -0.2714
     80  N        -23.6010    8.8650   34.7410 N.am   79  GLY79      -0.1954
     81  CA       -24.6490    9.5010   33.8880 C.3    79  GLY79       0.1869
     82  C        -25.9400    8.7460   33.5060 C.2    79  GLY79       0.2309
     83  O        -27.0030    9.3710   33.3060 O.2    79  GLY79      -0.2863
     84  N        -23.0550   23.1460   23.3960 N.3   105  GLU105     -0.1245
     85  CA       -22.0700   23.3600   24.4900 C.3   105  GLU105      0.1567
     86  C        -21.6380   22.0320   25.1780 C.2   105  GLU105      0.2260
     87  O        -20.4170   21.8060   25.4010 O.2   105  GLU105     -0.2867
     88  CB       -22.6250   24.4410   25.4740 C.3   105  GLU105      0.0388
     89  CG       -21.6200   24.9470   26.6070 C.3   105  GLU105      0.1160
     90  CD       -20.1980   25.4530   26.0860 C.2   105  GLU105      0.3649
     91  OE1      -20.0930   26.1170   25.0270 O.co2 105  GLU105     -0.2457
     92  OE2      -19.1730   25.1390   26.7210 O.co2 105  GLU105     -0.2457
     93  N        -17.7360   20.5090   25.5270 N.3   109  ARG109     -0.1231
     94  CA       -17.1150   20.1450   26.8290 C.3   109  ARG109      0.1694
     95  C        -16.5320   18.6950   26.9100 C.2   109  ARG109      0.2592
     96  O        -15.5220   18.5020   27.6030 O.2   109  ARG109     -0.2718
     97  CB       -18.0180   20.5060   28.0630 C.3   109  ARG109      0.0321
     98  CG       -18.2240   22.0090   28.4370 C.3   109  ARG109      0.0489
     99  CD       -19.2670   22.1760   29.5820 C.3   109  ARG109      0.2205
    100  NE       -19.7870   23.5300   29.8140 N.pl3 109  ARG109     -0.0865
    101  CZ       -20.6160   23.8970   30.7930 C.cat 109  ARG109      0.5346
    102  NH1      -21.1410   23.0250   31.6560 N.pl3 109  ARG109      0.1354
    103  NH2      -21.0300   25.1380   30.8690 N.pl3 109  ARG109      0.1354
    104  N        -17.1270   17.6870   26.2450 N.am  110  THR110     -0.1953
    105  CA       -16.6160   16.2850   26.2270 C.3   110  THR110      0.1897
    106  C        -15.4620   15.9950   25.2180 C.2   110  THR110      0.2313
    107  O        -15.0010   14.8360   25.0880 O.2   110  THR110     -0.2863
    108  CB       -17.7690   15.1520   26.0860 C.3   110  THR110      0.1794
    109  OG1      -18.5350   15.2720   24.8580 O.3   110  THR110     -0.2208
    110  CG2      -18.7860   15.1730   27.2450 C.3   110  THR110      0.0378
    111  N        -15.4830    7.1120   27.0970 N.3   116  ARG116     -0.1245
    112  CA       -16.9420    6.9480   27.1200 C.3   116  ARG116      0.1563
    113  C        -17.5720    5.9940   26.0520 C.2   116  ARG116      0.2260
    114  O        -18.0620    6.4590   25.0120 O.2   116  ARG116     -0.2867
    115  CB       -17.6280    8.3200   27.2570 C.3   116  ARG116      0.0307
    116  CG       -17.2820    9.0570   28.5690 C.3   116  ARG116      0.0489
    117  CD       -18.0700   10.3520   28.6970 C.3   116  ARG116      0.2205
    118  NE       -17.7830   11.2220   29.8570 N.pl3 116  ARG116     -0.0865
    119  CZ       -16.9790   12.2950   29.8600 C.cat 116  ARG116      0.5346
    120  NH1      -16.2710   12.6520   28.7860 N.pl3 116  ARG116      0.1354
    121  NH2      -16.8260   13.0110   30.9700 N.pl3 116  ARG116      0.1354
    122  N        -26.7420   25.6920   33.8810 N.3   149  THR149     -0.1218
    123  CA       -25.2780   25.9070   33.7770 C.3   149  THR149      0.1862
    124  C        -24.6980   26.5530   32.4450 C.2   149  THR149      0.2287
    125  O        -23.4490   26.6190   32.2770 O.2   149  THR149     -0.2866
    126  CB       -24.5040   24.6010   34.1200 C.3   149  THR149      0.1770
    127  OG1      -24.4690   23.6810   32.9840 O.3   149  THR149     -0.2211
    128  CG2      -25.1050   23.9270   35.4290 C.3   149  THR149      0.0375
    129  N        -23.2000   30.4310   33.2980 N.3   152  ARG152     -0.1231
    130  CA       -22.7560   30.6450   34.6990 C.3   152  ARG152      0.1694
    131  C        -21.3610   29.9930   34.7830 C.2   152  ARG152      0.2592
    132  O        -21.2030   28.8550   34.3240 O.2   152  ARG152     -0.2718
    133  CB       -23.7160   29.9720   35.7100 C.3   152  ARG152      0.0321
    134  CG       -24.8050   30.8850   36.4020 C.3   152  ARG152      0.0489
    135  CD       -25.6580   30.1320   37.4680 C.3   152  ARG152      0.2205
    136  NE       -26.8320   30.8650   37.9620 N.pl3 152  ARG152     -0.0865
    137  CZ       -28.1120   30.5270   37.7000 C.cat 152  ARG152      0.5346
    138  NH1      -28.4140   29.4810   36.9400 N.pl3 152  ARG152      0.1354
    139  NH2      -29.1260   31.2450   38.1900 N.pl3 152  ARG152      0.1354
    140  N        -20.3510   30.7010   35.3110 N.am  153  ASN153     -0.1961
    141  CA       -19.0240   30.0740   35.5310 C.3   153  ASN153      0.1804
    142  C        -19.0350   29.1120   36.7890 C.2   153  ASN153      0.2463
    143  O        -20.0100   29.1610   37.5180 O.2   153  ASN153     -0.2730
    144  CB       -17.8750   31.1140   35.5350 C.3   153  ASN153      0.1195
    145  CG       -17.9770   32.1370   36.6760 C.2   153  ASN153      0.2630
    146  OD1      -18.0670   31.7830   37.8720 O.2   153  ASN153     -0.2716
    147  ND2      -17.9360   33.4320   36.3090 N.am  153  ASN153     -0.0877
    148  N        -18.0670   28.1580   36.9520 N.am  154  PRO154     -0.2727
    149  CA       -18.2450   27.2020   38.0980 C.3   154  PRO154      0.1402
    150  C        -18.4190   27.7170   39.5750 C.2   154  PRO154      0.2269
    151  O        -19.2820   27.1530   40.3150 O.2   154  PRO154     -0.2865
    152  CB       -17.0940   26.1670   37.9390 C.3   154  PRO154      0.0296
    153  CG       -16.3710   26.5160   36.5740 C.3   154  PRO154      0.0237
    154  CD       -16.8850   27.8700   36.0970 C.3   154  PRO154      0.0939
    155  N        -22.2130   28.7940   39.9530 N.3   157  VAL157     -0.1245
    156  CA       -23.0270   27.5500   40.1990 C.3   157  VAL157      0.1561
    157  C        -23.0480   27.1470   41.7280 C.2   157  VAL157      0.2260
    158  O        -24.1500   27.1040   42.3230 O.2   157  VAL157     -0.2867
    159  CB       -22.7800   26.3340   39.1710 C.3   157  VAL157      0.0252
    160  CG1      -23.7220   25.0210   39.4870 C.3   157  VAL157      0.0019
    161  CG2      -22.8870   26.7750   37.6290 C.3   157  VAL157      0.0019
@<TRIPOS>BOND
     1    84    85    1
     2    85    86    1
     3    85    88    1
     4   109   108    1
     5   114   113    2
     6    91    90   ar
     7   107   106    2
     8    86    87    2
     9   106   105    1
    10    88    89    1
    11    93    94    1
    12   113   112    1
    13   108   105    1
    14   108   110    1
    15    90    89    1
    16    90    92   ar
    17   105   104    1
    18   104    95   am
    19    94    95    1
    20    94    97    1
    21    95    96    2
    22   111   112    1
    23   112   115    1
    24   115   116    1
    25    97    98    1
    26     7     6    1
    27    98    99    1
    28   116   117    1
    29     8     6    1
    30   117   118    1
    31   120   119    1
    32    14    13    1
    33    14    15    1
    34     6     5    1
    35    12    11    2
    36    13    10    1
    37    99   100    1
    38     5     2    1
    39   100   101    2
    40    15     9    1
    41   118   119    2
    42   119   121    1
    43    11    10    1
    44    11    16   am
    45    17    16    1
    46    17    18    1
    47    10     9    1
    48     9     3   am
    49   101   103    1
    50   101   102    1
    51    19    18    2
    52     2     3    1
    53     2     1    1
    54    18    20   am
    55     3     4    2
    56    20    21    1
    57   125   124    2
    58   124   123    1
    59    21    24    1
    60    21    22    1
    61   127   126    1
    62    24    25    1
    63   129   130    1
    64    83    82    2
    65    82    81    1
    66   123   122    1
    67   123   126    1
    68    81    80    1
    69    22    26   am
    70    22    23    2
    71   126   128    1
    72   132   131    2
    73    26    27    1
    74    38    37    1
    75   130   131    1
    76   130   133    1
    77    80    78   am
    78   131   140   am
    79   140   141    1
    80   141   144    1
    81   141   142    1
    82   144   145    1
    83    27    28    1
    84   133   134    1
    85    37    36    1
    86    78    79    2
    87    78    77    1
    88   154   153    1
    89   154   148    1
    90   147   145   am
    91    67    65   ar
    92   134   135    1
    93   153   152    1
    94   145   146    2
    95    66    65   ar
    96    50    49    1
    97   142   148   am
    98   142   143    2
    99    65    64    1
   100    77    76    1
   101   138   137    1
   102   148   149    1
   103    36    35    1
   104    28    30   am
   105    28    29    2
   106    30    31    1
   107    35    34    2
   108   135   136    1
   109   161   159    1
   110    49    51    1
   111    49    46    1
   112   137   136    2
   113   137   139    1
   114    64    61    1
   115   152   149    1
   116    34    31    1
   117   149   150    1
   118    44    43    1
   119    71    70    2
   120    31    32    1
   121    76    70   am
   122    39    32   am
   123    39    40    1
   124    43    40    1
   125    70    69    1
   126    45    46    1
   127    45    41   am
   128    61    62    1
   129    61    60    1
   130    63    62    2
   131    46    47    1
   132    32    33    2
   133    57    59    1
   134    57    56    1
   135   159   160    1
   136   159   156    1
   137    40    41    1
   138   150   151    2
   139    41    42    2
   140   155   156    1
   141    52    47   am
   142    52    53    1
   143    47    48    2
   144   156   157    1
   145    69    72    1
   146    69    68    1
   147    72    73    1
   148    56    53    1
   149    56    58    1
   150    53    54    1
   151    75    73    1
   152    73    74    1
   153   157   158    2
   154    54    55    2
