@<TRIPOS>MOLECULE
tmp/3bb1F01.pdb
 124 118 0 0 0
SMALL
GASTEIGER

@<TRIPOS>ATOM
      1  N         52.8140   74.6880   80.1720 N.3     9  THR9       -0.1203
      2  CA        53.3540   73.8710   81.2610 C.3     9  THR9        0.1994
      3  C         54.8660   73.9330   81.2530 C.2     9  THR9        0.2618
      4  O         55.5010   73.7030   82.2680 O.2     9  THR9       -0.2717
      5  CB        52.9360   72.4030   81.1850 C.3     9  THR9        0.1784
      6  OG1       53.5090   71.7730   80.0090 O.3     9  THR9       -0.2211
      7  CG2       51.4340   72.2850   81.2250 C.3     9  THR9        0.0376
      8  N         55.4540   74.2560   80.1160 N.am   10  PHE10      -0.1961
      9  CA        56.9040   74.3140   80.0650 C.3    10  PHE10       0.1771
     10  C         57.4340   75.4180   80.9770 C.2    10  PHE10       0.2619
     11  O         56.6850   76.2670   81.4670 O.2    10  PHE10      -0.2715
     12  CB        57.3960   74.4980   78.6240 C.3    10  PHE10       0.0574
     13  CG        56.8590   73.4670   77.6590 C.ar   10  PHE10      -0.0200
     14  CD1       56.3780   72.2550   78.1120 C.ar   10  PHE10      -0.0042
     15  CD2       56.8490   73.7070   76.3020 C.ar   10  PHE10      -0.0042
     16  CE1       55.8970   71.2940   77.2430 C.ar   10  PHE10      -0.0003
     17  CE2       56.3610   72.7580   75.4160 C.ar   10  PHE10      -0.0003
     18  CZ        55.8860   71.5410   75.8960 C.ar   10  PHE10      -0.0000
     19  N         58.7340   75.3830   81.2200 N.am   11  ALA11      -0.1977
     20  CA        59.3830   76.4560   81.9560 C.3    11  ALA11       0.1597
     21  C         59.3340   77.6700   81.0480 C.2    11  ALA11       0.2287
     22  O         59.3490   77.5120   79.8250 O.2    11  ALA11      -0.2864
     23  CB        60.8120   76.0930   82.2670 C.3    11  ALA11       0.0319
     24  N         61.9830   77.6760   78.4100 N.3    14  THR14      -0.1218
     25  CA        61.5910   76.7080   77.3600 C.3    14  THR14       0.1862
     26  C         60.4670   77.2440   76.4640 C.2    14  THR14       0.2287
     27  O         60.4340   76.9400   75.2720 O.2    14  THR14      -0.2866
     28  CB        61.1850   75.3250   77.9650 C.3    14  THR14       0.1770
     29  OG1       62.3570   74.6340   78.3780 O.3    14  THR14      -0.2211
     30  CG2       60.4810   74.4290   76.9490 C.3    14  THR14       0.0375
     31  N         52.9350   62.7100   74.8310 N.3    50  ASN50      -0.1225
     32  CA        52.4440   63.5200   75.9320 C.3    50  ASN50       0.1785
     33  C         53.4140   64.6200   76.4420 C.2    50  ASN50       0.2597
     34  O         52.9530   65.7090   76.8690 O.2    50  ASN50      -0.2718
     35  CB        51.9860   62.6240   77.0840 C.3    50  ASN50       0.1169
     36  CG        50.6530   61.9230   76.7940 C.2    50  ASN50       0.2627
     37  OD1       49.9400   62.2810   75.8720 O.2    50  ASN50      -0.2716
     38  ND2       50.3380   60.9270   77.5550 N.am   50  ASN50      -0.0877
     39  N         54.7360   64.4010   76.4020 N.am   51  SER51      -0.1952
     40  CA        55.6130   65.4890   76.8460 C.3    51  SER51       0.1924
     41  C         55.5840   66.6610   75.8820 C.2    51  SER51       0.2314
     42  O         55.5800   67.7800   76.3370 O.2    51  SER51      -0.2863
     43  CB        57.0720   65.0870   77.0560 C.3    51  SER51       0.2116
     44  OG        57.2010   63.8050   77.5710 O.3    51  SER51      -0.2180
     45  N         52.3870   68.4600   75.9040 N.3    54  GLY54      -0.1210
     46  CA        52.4620   69.1660   77.1700 C.3    54  GLY54       0.1956
     47  C         51.2670   68.8840   78.0100 C.2    54  GLY54       0.2612
     48  O         50.9900   69.5970   78.9590 O.2    54  GLY54      -0.2717
     49  N         50.5440   67.8440   77.6390 N.am   55  GLU55      -0.1965
     50  CA        49.4030   67.3760   78.4170 C.3    55  GLU55       0.1733
     51  C         49.2550   65.9040   78.1340 C.2    55  GLU55       0.2616
     52  O         49.8480   65.3830   77.1990 O.2    55  GLU55      -0.2715
     53  CB        48.0900   68.1010   78.0360 C.3    55  GLU55       0.0429
     54  CG        48.2140   69.5730   77.6990 C.3    55  GLU55       0.1163
     55  CD        46.9360   70.1900   77.1700 C.2    55  GLU55       0.3649
     56  OE1       46.5750   69.8640   76.0250 O.co2  55  GLU55      -0.2457
     57  OE2       46.3330   71.0460   77.8680 O.co2  55  GLU55      -0.2457
     58  N         48.4160   65.2440   78.9130 N.am   56  ARG56      -0.1977
     59  CA        48.2420   63.7960   78.7620 C.3    56  ARG56       0.1597
     60  C         47.0190   63.5670   77.9630 C.2    56  ARG56       0.2287
     61  O         45.9120   63.5210   78.4650 O.2    56  ARG56      -0.2864
     62  CB        48.1570   63.0520   80.0880 C.3    56  ARG56       0.0334
     63  CG        48.9870   63.7240   81.1640 C.3    56  ARG56       0.0492
     64  CD        49.8180   62.7910   81.8960 C.3    56  ARG56       0.2205
     65  NE        49.1070   61.5380   82.0910 N.pl3  56  ARG56      -0.0865
     66  CZ        49.6680   60.5110   82.6950 C.cat  56  ARG56       0.5346
     67  NH1       50.9210   60.6400   83.1440 N.pl3  56  ARG56       0.1354
     68  NH2       48.9930   59.3770   82.8540 N.pl3  56  ARG56       0.1354
     69  N         60.6480   61.5370   80.2470 N.3   199  ASN199     -0.1240
     70  CA        59.2080   61.7810   80.3110 C.3   199  ASN199      0.1653
     71  C         58.6770   61.8920   81.7600 C.2   199  ASN199      0.2266
     72  O         57.6970   62.5790   82.0090 O.2   199  ASN199     -0.2867
     73  CB        58.4520   60.7710   79.4140 C.3   199  ASN199      0.1155
     74  CG        58.6390   61.0550   77.8770 C.2   199  ASN199      0.2627
     75  OD1       58.7080   60.1440   77.0750 O.2   199  ASN199     -0.2716
     76  ND2       58.7140   62.3190   77.4960 N.am  199  ASN199     -0.0877
     77  N         65.7140   70.0720   87.2480 N.3   205  LYS205     -0.1245
     78  CA        65.7040   71.2550   86.3830 C.3   205  LYS205      0.1561
     79  C         67.1230   71.8870   86.3230 C.2   205  LYS205      0.2260
     80  O         68.1160   71.1810   86.5500 O.2   205  LYS205     -0.2867
     81  CB        64.6450   72.2730   86.9000 C.3   205  LYS205      0.0271
     82  CG        63.2390   72.1740   86.2790 C.3   205  LYS205      0.0035
     83  CD        62.3500   71.0650   86.8550 C.3   205  LYS205      0.0206
     84  CE        60.8830   71.5280   86.9750 C.3   205  LYS205      0.1093
     85  NZ        59.9450   70.5000   87.4980 N.3   205  LYS205     -0.1314
     86  N         64.4500   76.8260   85.8190 N.3   209  ASP209     -0.1239
     87  CA        63.3300   75.8360   85.8430 C.3   209  ASP209      0.1674
     88  C         63.2250   74.9560   84.5720 C.2   209  ASP209      0.2266
     89  O         62.2470   74.2240   84.3980 O.2   209  ASP209     -0.2867
     90  CB        61.9870   76.5450   86.2210 C.3   209  ASP209      0.1410
     91  CG        60.7350   75.5860   86.2670 C.2   209  ASP209      0.3668
     92  OD1       60.8720   74.3360   86.4100 O.co2 209  ASP209     -0.2456
     93  OD2       59.5920   76.1250   86.1630 O.co2 209  ASP209     -0.2456
     94  N         64.1940   71.6460   82.3280 N.3   211  LYS211     -0.1245
     95  CA        64.5100   70.2290   82.5550 C.3   211  LYS211      0.1561
     96  C         65.7790   69.8530   81.8020 C.2   211  LYS211      0.2260
     97  O         65.7200   69.7070   80.5840 O.2   211  LYS211     -0.2867
     98  CB        63.3780   69.3460   81.9910 C.3   211  LYS211      0.0271
     99  CG        62.1140   69.1540   82.8540 C.3   211  LYS211      0.0035
    100  CD        61.0970   68.3210   82.0610 C.3   211  LYS211      0.0206
    101  CE        59.8880   67.8290   82.8990 C.3   211  LYS211      0.1093
    102  NZ        59.9320   66.3610   83.1820 N.3   211  LYS211     -0.1314
    103  N         66.4410   69.2160   77.3950 N.3   219  TRP219     -0.1227
    104  CA        65.9920   68.3290   76.3300 C.3   219  TRP219      0.1737
    105  C         64.8130   68.7590   75.4980 C.2   219  TRP219      0.2595
    106  O         64.7860   68.3910   74.3320 O.2   219  TRP219     -0.2718
    107  CB        65.7620   66.9130   76.8220 C.3   219  TRP219      0.0564
    108  CG        64.5330   66.6210   77.5900 C.ar  219  TRP219      0.0003
    109  CD1       64.4330   66.5760   78.9330 C.ar  219  TRP219      0.0946
    110  CD2       63.2490   66.2100   77.0720 C.ar  219  TRP219      0.0152
    111  NE1       63.1690   66.1920   79.2980 N.ar  219  TRP219     -0.2442
    112  CE2       62.4210   65.9630   78.1700 C.ar  219  TRP219      0.0810
    113  CE3       62.7220   66.0350   75.7900 C.ar  219  TRP219      0.0012
    114  CZ2       61.0790   65.5540   78.0320 C.ar  219  TRP219      0.0191
    115  CZ3       61.3750   65.6310   75.6640 C.ar  219  TRP219      0.0001
    116  CH2       60.5880   65.3870   76.7790 C.ar  219  TRP219      0.0015
    117  N         63.8370   69.4780   76.0580 N.am  220  ILE220     -0.1980
    118  CA        62.6690   69.8950   75.2500 C.3   220  ILE220      0.1595
    119  C         63.0620   70.8660   74.1470 C.2   220  ILE220      0.2287
    120  O         62.7650   70.6130   72.9830 O.2   220  ILE220     -0.2864
    121  CB        61.5020   70.4820   76.0450 C.3   220  ILE220      0.0276
    122  CG1       60.7900   69.4040   76.8580 C.3   220  ILE220      0.0022
    123  CG2       60.5100   71.0740   75.0950 C.3   220  ILE220      0.0022
    124  CD1       59.3740   69.8150   77.2630 C.3   220  ILE220      0.0001
@<TRIPOS>BOND
     1   120   119    2
     2   119   118    1
     3   106   105    2
     4    31    32    1
     5   123   121    1
     6   118   121    1
     7   118   117    1
     8    27    26    2
     9    17    18   ar
    10    17    15   ar
    11   105   117   am
    12   105   104    1
    13   115   113   ar
    14   115   116   ar
    15   113   110   ar
    16    37    36    2
    17    41    42    2
    18    41    40    1
    19    18    16   ar
    20    45    46    1
    21    32    33    1
    22    32    35    1
    23    56    55   ar
    24   121   122    1
    25    15    13   ar
    26   104   107    1
    27   104   103    1
    28    39    33   am
    29    39    40    1
    30    33    34    2
    31    26    25    1
    32   116   114   ar
    33    36    35    1
    34    36    38   am
    35   107   108    1
    36    40    43    1
    37   122   124    1
    38    30    28    1
    39    43    44    1
    40   110   108   ar
    41   110   112   ar
    42    75    74    2
    43    46    47    1
    44    55    54    1
    45    55    57   ar
    46    52    51    2
    47    16    14   ar
    48    25    28    1
    49    25    24    1
    50    76    74   am
    51   108   109   ar
    52    49    47   am
    53    49    50    1
    54    13    14   ar
    55    13    12    1
    56    54    53    1
    57    74    73    1
    58    60    61    2
    59    60    59    1
    60    28    29    1
    61    47    48    2
    62   114   112   ar
    63    53    50    1
    64    51    50    1
    65    51    58   am
    66   112   111   ar
    67    12     9    1
    68    59    58    1
    69    59    62    1
    70   109   111   ar
    71    73    70    1
    72    22    21    2
    73     6     5    1
    74     9     8    1
    75     9    10    1
    76    62    63    1
    77     8     3   am
    78     1     2    1
    79    69    70    1
    80    70    71    1
    81    97    96    2
    82    10    19   am
    83    10    11    2
    84    21    20    1
    85    63    64    1
    86     5     7    1
    87     5     2    1
    88    19    20    1
    89     3     2    1
    90     3     4    2
    91    71    72    2
    92    96    95    1
    93    64    65    1
    94    20    23    1
    95    98    95    1
    96    98    99    1
    97   100    99    1
    98   100   101    1
    99    65    66    2
   100    94    95    1
   101    66    68    1
   102    66    67    1
   103   101   102    1
   104    89    88    2
   105    88    87    1
   106    86    87    1
   107    87    90    1
   108    93    91   ar
   109    90    91    1
   110    91    92   ar
   111    82    83    1
   112    82    81    1
   113    79    78    1
   114    79    80    2
   115    78    81    1
   116    78    77    1
   117    83    84    1
   118    84    85    1
