@<TRIPOS>MOLECULE
tmp/3bb1F00.pdb
 153 149 0 0 0
SMALL
GASTEIGER

@<TRIPOS>ATOM
      1  N         57.6180   48.0460   71.3680 N.3    41  GLY41      -0.1210
      2  CA        56.6530   48.3520   72.3970 C.3    41  GLY41       0.1956
      3  C         57.3800   48.7710   73.6530 C.2    41  GLY41       0.2612
      4  O         58.5740   48.4910   73.8440 O.2    41  GLY41      -0.2717
      5  N         56.6610   49.4840   74.5080 N.am   42  GLY42      -0.1942
      6  CA        57.1480   49.7850   75.8560 C.3    42  GLY42       0.2014
      7  C         58.3410   50.7140   75.9580 C.2    42  GLY42       0.2639
      8  O         58.9710   50.7510   76.9890 O.2    42  GLY42      -0.2714
      9  N         58.6830   51.4700   74.9330 N.am   43  VAL43      -0.1963
     10  CA        59.9140   52.2440   75.0220 C.3    43  VAL43       0.1727
     11  C         59.6120   53.7050   75.3050 C.2    43  VAL43       0.2617
     12  O         60.4720   54.5330   75.4920 O.2    43  VAL43      -0.2715
     13  CB        60.7090   51.9950   73.8020 C.3    43  VAL43       0.0290
     14  CG1       60.8630   50.4750   73.6840 C.3    43  VAL43       0.0023
     15  CG2       60.0210   52.5890   72.5750 C.3    43  VAL43       0.0023
     16  N         58.3290   53.9940   75.4030 N.am   44  GLY44      -0.1940
     17  CA        57.8930   55.2910   75.8700 C.3    44  GLY44       0.2014
     18  C         57.5070   56.1640   74.7180 C.2    44  GLY44       0.2639
     19  O         57.8730   57.3560   74.6900 O.2    44  GLY44      -0.2714
     20  N         56.7890   55.5980   73.7580 N.am   45  LYS45      -0.1963
     21  CA        56.3430   56.4220   72.6370 C.3    45  LYS45       0.1728
     22  C         55.2970   57.3900   73.1640 C.2    45  LYS45       0.2617
     23  O         55.5370   58.5780   73.2720 O.2    45  LYS45      -0.2715
     24  CB        55.8070   55.5650   71.5000 C.3    45  LYS45       0.0311
     25  CG        56.8790   54.6280   70.9600 C.3    45  LYS45       0.0038
     26  CD        56.4130   53.7720   69.7760 C.3    45  LYS45       0.0206
     27  CE        55.2850   52.8540   70.1400 C.3    45  LYS45       0.1093
     28  NZ        55.5070   52.0320   71.3850 N.3    45  LYS45      -0.1314
     29  N         54.1660   56.8610   73.5760 N.am   46  SER46      -0.1936
     30  CA        53.0570   57.7210   73.9490 C.3    46  SER46       0.2055
     31  C         53.4190   58.8120   75.0050 C.2    46  SER46       0.2643
     32  O         52.8520   59.9230   74.9710 O.2    46  SER46      -0.2714
     33  CB        51.8890   56.8640   74.4370 C.3    46  SER46       0.2130
     34  OG        51.5940   55.9000   73.4630 O.3    46  SER46      -0.2179
     35  N         54.3360   58.4880   75.9250 N.am   47  SER47      -0.1949
     36  CA        54.7990   59.4430   76.9040 C.3    47  SER47       0.1924
     37  C         55.5640   60.5920   76.2660 C.2    47  SER47       0.2314
     38  O         55.4880   61.7320   76.7510 O.2    47  SER47      -0.2863
     39  CB        55.7120   58.7510   77.8720 C.3    47  SER47       0.2116
     40  OG        55.0340   57.6480   78.4060 O.3    47  SER47      -0.2180
     41  N         49.0230   56.0090   78.6780 N.3    60  ILE60      -0.1231
     42  CA        50.2950   55.3170   78.7810 C.3    60  ILE60       0.1692
     43  C         50.0630   54.1360   79.7300 C.2    60  ILE60       0.2593
     44  O         49.0610   54.1110   80.4480 O.2    60  ILE60      -0.2718
     45  CB        51.4230   56.2830   79.2680 C.3    60  ILE60       0.0266
     46  CG1       51.1360   56.8500   80.6690 C.3    60  ILE60       0.0019
     47  CG2       51.6010   57.4140   78.2600 C.3    60  ILE60       0.0020
     48  CD1       52.4090   57.4390   81.4150 C.3    60  ILE60       0.0001
     49  N         50.9320   53.1340   79.7290 N.am   61  SER61      -0.1939
     50  CA        50.7810   52.0560   80.7260 C.3    61  SER61       0.2040
     51  C         52.1170   51.4420   81.0920 C.2    61  SER61       0.2485
     52  O         52.9920   51.2410   80.2440 O.2    61  SER61      -0.2729
     53  CB        49.7880   50.9700   80.2730 C.3    61  SER61       0.2129
     54  OG        49.8030   49.8240   81.1200 O.3    61  SER61      -0.2179
     55  N         52.2790   51.1510   82.3720 N.am   62  PRO62      -0.2726
     56  CA        53.5040   50.5130   82.7770 C.3    62  PRO62       0.1402
     57  C         53.3830   48.9810   82.7120 C.2    62  PRO62       0.2269
     58  O         54.3540   48.2790   83.0390 O.2    62  PRO62      -0.2865
     59  CB        53.6870   51.0130   84.2230 C.3    62  PRO62       0.0296
     60  CG        52.2940   51.5560   84.6570 C.3    62  PRO62       0.0237
     61  CD        51.3610   51.3690   83.5030 C.3    62  PRO62       0.0939
     62  N         50.5060   46.9330   80.3770 N.3    64  GLN64      -0.1231
     63  CA        49.8660   46.2820   79.2320 C.3    64  GLN64       0.1698
     64  C         49.7820   47.2800   78.0950 C.2    64  GLN64       0.2592
     65  O         49.8680   48.4960   78.3250 O.2    64  GLN64      -0.2718
     66  CB        48.4500   45.7570   79.5600 C.3    64  GLN64       0.0381
     67  CG        48.1100   45.5690   81.0520 C.3    64  GLN64       0.0905
     68  CD        47.5470   46.8380   81.6960 C.2    64  GLN64       0.2608
     69  OE1       47.6820   47.0490   82.9090 O.2    64  GLN64      -0.2717
     70  NE2       46.9080   47.6860   80.8800 N.am   64  GLN64      -0.0878
     71  N         49.5460   46.7590   76.8880 N.am   65  SER65      -0.1952
     72  CA        49.7730   47.4980   75.6500 C.3    65  SER65       0.1924
     73  C         48.6810   48.4480   75.2060 C.2    65  SER65       0.2314
     74  O         48.9620   49.6440   74.8700 O.2    65  SER65      -0.2863
     75  CB        50.0260   46.5310   74.5040 C.3    65  SER65       0.2116
     76  OG        51.4080   46.3880   74.3020 O.3    65  SER65      -0.2180
     77  N         51.6570   55.5890   67.8220 N.3    87  THR87      -0.1204
     78  CA        51.4240   54.3260   67.1420 C.3    87  THR87       0.1979
     79  C         51.6790   53.1150   68.0340 C.2    87  THR87       0.2460
     80  O         52.4080   53.2020   69.0000 O.2    87  THR87      -0.2732
     81  CB        52.2900   54.2630   65.9230 C.3    87  THR87       0.1783
     82  OG1       53.6390   54.1830   66.3310 O.3    87  THR87      -0.2211
     83  CG2       52.1220   55.5200   65.1400 C.3    87  THR87       0.0376
     84  N         51.0360   51.9780   67.7260 N.am   88  PRO88      -0.2717
     85  CA        51.3540   50.7730   68.4810 C.3    88  PRO88       0.1535
     86  C         52.7890   50.3640   68.1800 C.2    88  PRO88       0.2599
     87  O         53.3360   50.6510   67.1290 O.2    88  PRO88      -0.2715
     88  CB        50.3790   49.7240   67.9340 C.3    88  PRO88       0.0310
     89  CG        49.4440   50.4340   67.0770 C.3    88  PRO88       0.0237
     90  CD        50.0310   51.7380   66.6790 C.3    88  PRO88       0.0939
     91  N         53.3990   49.6820   69.1170 N.am   89  GLY89      -0.1955
     92  CA        54.7840   49.2750   68.9560 C.3    89  GLY89       0.1869
     93  C         54.7830   48.2700   67.8670 C.2    89  GLY89       0.2309
     94  O         53.8010   47.5560   67.6990 O.2    89  GLY89      -0.2863
     95  N         64.5170   57.4200   75.4800 N.3   155  THR155     -0.1203
     96  CA        63.7730   57.8320   76.6690 C.3   155  THR155      0.1994
     97  C         64.5170   57.4290   77.9740 C.2   155  THR155      0.2617
     98  O         65.6500   56.9150   77.9360 O.2   155  THR155     -0.2717
     99  CB        62.3680   57.2290   76.6260 C.3   155  THR155      0.1784
    100  OG1       62.4780   55.8170   76.7300 O.3   155  THR155     -0.2211
    101  CG2       61.6300   57.5770   75.2890 C.3   155  THR155      0.0376
    102  N         63.8770   57.6580   79.1210 N.am  156  HIS156     -0.1975
    103  CA        64.4580   57.3290   80.4020 C.3   156  HIS156      0.1656
    104  C         65.8820   57.9170   80.4870 C.2   156  HIS156      0.2291
    105  O         66.8150   57.2570   80.9580 O.2   156  HIS156     -0.2864
    106  CB        64.5340   55.8230   80.5850 C.3   156  HIS156      0.0771
    107  CG        63.2200   55.1430   80.7680 C.ar  156  HIS156      0.0820
    108  ND1       62.2880   55.0410   79.7590 N.ar  156  HIS156     -0.2267
    109  CD2       62.7230   54.4450   81.8190 C.ar  156  HIS156      0.1154
    110  CE1       61.2640   54.3220   80.1910 C.ar  156  HIS156      0.1986
    111  NE2       61.5020   53.9530   81.4380 N.ar  156  HIS156     -0.2212
    112  N         65.4750   61.9790   75.9940 N.3   197  ILE197     -0.1231
    113  CA        64.1490   62.3340   76.5070 C.3   197  ILE197      0.1692
    114  C         64.0170   61.8440   77.9630 C.2   197  ILE197      0.2592
    115  O         64.4100   60.7060   78.2780 O.2   197  ILE197     -0.2718
    116  CB        63.0080   61.6560   75.6640 C.3   197  ILE197      0.0266
    117  CG1       63.2580   61.7460   74.1400 C.3   197  ILE197      0.0019
    118  CG2       61.6070   62.2020   76.0700 C.3   197  ILE197      0.0020
    119  CD1       62.5800   62.9180   73.3990 C.3   197  ILE197      0.0001
    120  N         63.4560   62.6840   78.8380 N.am  198  GLU198     -0.1966
    121  CA        62.9710   62.2350   80.1390 C.3   198  GLU198      0.1733
    122  C         61.5050   62.5480   80.2830 C.2   198  GLU198      0.2616
    123  O         61.1470   63.6980   80.4580 O.2   198  GLU198     -0.2715
    124  CB        63.6990   62.9420   81.2560 C.3   198  GLU198      0.0429
    125  CG        64.2070   62.0240   82.3260 C.3   198  GLU198      0.1163
    126  CD        63.2810   60.8710   82.7160 C.2   198  GLU198      0.3649
    127  OE1       62.1220   61.1360   83.0300 O.co2 198  GLU198     -0.2457
    128  OE2       63.7240   59.7030   82.7570 O.co2 198  GLU198     -0.2457
    129  N         60.6480   61.5370   80.2470 N.am  199  ASN199     -0.1958
    130  CA        59.2080   61.7810   80.3110 C.3   199  ASN199      0.1819
    131  C         58.6770   61.8920   81.7600 C.2   199  ASN199      0.2622
    132  O         57.6970   62.5790   82.0090 O.2   199  ASN199     -0.2715
    133  CB        58.4520   60.7710   79.4140 C.3   199  ASN199      0.1195
    134  CG        58.6390   61.0550   77.8770 C.2   199  ASN199      0.2630
    135  OD1       58.7080   60.1440   77.0750 O.2   199  ASN199     -0.2716
    136  ND2       58.7140   62.3190   77.4960 N.am  199  ASN199     -0.0877
    137  N         59.3400   61.2530   82.7140 N.am  200  SER200     -0.1950
    138  CA        59.1180   61.5500   84.1390 C.3   200  SER200      0.1924
    139  C         59.4220   63.0520   84.3450 C.2   200  SER200      0.2314
    140  O         60.3940   63.5460   83.7680 O.2   200  SER200     -0.2863
    141  CB        60.0190   60.6730   85.0200 C.3   200  SER200      0.2116
    142  OG        59.9600   61.0500   86.3830 O.3   200  SER200     -0.2180
    143  N         59.7990   63.1940   88.1180 N.3   202  ARG202     -0.1245
    144  CA        60.9180   63.8230   88.8620 C.3   202  ARG202      0.1563
    145  C         62.1280   64.0020   87.9260 C.2   202  ARG202      0.2260
    146  O         63.0050   63.1310   87.7960 O.2   202  ARG202     -0.2867
    147  CB        61.3180   63.0830   90.1650 C.3   202  ARG202      0.0307
    148  CG        61.5220   61.5680   90.0660 C.3   202  ARG202      0.0489
    149  CD        60.3500   60.7730   90.6750 C.3   202  ARG202      0.2205
    150  NE        60.2510   59.4450   90.0590 N.pl3 202  ARG202     -0.0865
    151  CZ        59.2920   59.0460   89.2170 C.cat 202  ARG202      0.5346
    152  NH1       58.2890   59.8500   88.8780 N.pl3 202  ARG202      0.1354
    153  NH2       59.3380   57.8170   88.7160 N.pl3 202  ARG202      0.1354
@<TRIPOS>BOND
     1    83    81    1
     2    81    82    1
     3    81    78    1
     4    90    89    1
     5    90    84    1
     6    89    88    1
     7    87    86    2
     8    78    77    1
     9    78    79    1
    10    94    93    2
    11    84    79   am
    12    84    85    1
    13    93    92    1
    14    88    85    1
    15    79    80    2
    16    86    85    1
    17    86    91   am
    18    92    91    1
    19    26    27    1
    20    26    25    1
    21    27    28    1
    22    25    24    1
    23     1     2    1
    24    24    21    1
    25     2     3    1
    26    15    13    1
    27    21    22    1
    28    21    20    1
    29    22    23    2
    30    22    29   am
    31   119   117    1
    32    34    33    1
    33    29    30    1
    34     3     4    2
    35     3     5   am
    36    14    13    1
    37    20    18   am
    38    13    10    1
    39    30    33    1
    40    30    31    1
    41   117   116    1
    42    76    75    1
    43    75    72    1
    44     5     6    1
    45    19    18    2
    46    18    17    1
    47    74    73    2
    48     9    10    1
    49     9     7   am
    50    32    31    2
    51    31    35   am
    52    10    11    1
    53    73    72    1
    54   101    99    1
    55    11    16   am
    56    11    12    2
    57    16    17    1
    58    95    96    1
    59    72    71    1
    60   116   118    1
    61   116   113    1
    62     6     7    1
    63    35    36    1
    64     7     8    2
    65   112   113    1
    66    37    38    2
    67    37    36    1
    68   113   114    1
    69    99    96    1
    70    99   100    1
    71    96    97    1
    72    71    64   am
    73    36    39    1
    74   135   134    2
    75   136   134   am
    76    39    40    1
    77   134   133    1
    78    98    97    2
    79   114   115    2
    80   114   120   am
    81    97   102   am
    82    64    65    2
    83    64    63    1
    84    47    45    1
    85    41    42    1
    86    42    45    1
    87    42    43    1
    88   120   121    1
    89   102   103    1
    90    63    66    1
    91    63    62    1
    92    45    46    1
    93   133   130    1
    94    66    67    1
    95    49    43   am
    96    49    50    1
    97    43    44    2
    98   108   110   ar
    99   108   107   ar
   100   121   122    1
   101   121   124    1
   102   110   111   ar
   103    52    51    2
   104   129   122   am
   105   129   130    1
   106    53    50    1
   107    53    54    1
   108   122   123    2
   109   130   131    1
   110   103   104    1
   111   103   106    1
   112   104   105    2
   113   106   107    1
   114    46    48    1
   115    50    51    1
   116   107   109   ar
   117    70    68   am
   118    67    68    1
   119    51    55   am
   120   124   125    1
   121   111   109   ar
   122    68    69    2
   123   131   132    2
   124   131   137   am
   125   125   126    1
   126    55    56    1
   127    55    61    1
   128    57    56    1
   129    57    58    2
   130   137   138    1
   131   126   128   ar
   132   126   127   ar
   133    56    59    1
   134    61    60    1
   135   140   139    2
   136   138   139    1
   137   138   141    1
   138    59    60    1
   139   141   142    1
   140   146   145    2
   141   145   144    1
   142   143   144    1
   143   153   151    1
   144   144   147    1
   145   152   151    1
   146   151   150    2
   147   150   149    1
   148   148   147    1
   149   148   149    1
