@<TRIPOS>MOLECULE
tmp/3bb4A00.pdb
 156 154 0 0 0
SMALL
GASTEIGER

@<TRIPOS>ATOM
      1  N         40.6510   10.6200   11.8070 N.3    39  GLY39      -0.1210
      2  CA        40.4910   11.1550   13.1430 C.3    39  GLY39       0.1956
      3  C         41.7740   10.9210   13.8990 C.2    39  GLY39       0.2612
      4  O         42.3580    9.8510   13.8150 O.2    39  GLY39      -0.2717
      5  N         42.2470   11.9370   14.6030 N.am   40  GLY40      -0.1942
      6  CA        43.2460   11.7430   15.6590 C.3    40  GLY40       0.2014
      7  C         44.6200   12.2280   15.2620 C.2    40  GLY40       0.2639
      8  O         45.5560   12.1890   16.0820 O.2    40  GLY40      -0.2714
      9  N         44.7220   12.7350   14.0300 N.am   41  VAL41      -0.1963
     10  CA        46.0030   12.9470   13.3600 C.3    41  VAL41       0.1727
     11  C         46.6240   14.3410   13.6260 C.2    41  VAL41       0.2617
     12  O         47.7370   14.6220   13.1660 O.2    41  VAL41      -0.2715
     13  CB        45.8670   12.6640   11.8320 C.3    41  VAL41       0.0290
     14  CG1       45.6100   11.1840   11.6080 C.3    41  VAL41       0.0023
     15  CG2       44.7680   13.5350   11.1740 C.3    41  VAL41       0.0023
     16  N         45.9250   15.1970   14.3780 N.am   42  GLY42      -0.1940
     17  CA        46.3890   16.5590   14.6500 C.3    42  GLY42       0.2014
     18  C         45.9270   17.6150   13.6690 C.2    42  GLY42       0.2639
     19  O         46.6150   18.6210   13.4760 O.2    42  GLY42      -0.2714
     20  N         44.7770   17.4030   13.0250 N.am   43  LYS43      -0.1963
     21  CA        44.2220   18.4200   12.1020 C.3    43  LYS43       0.1728
     22  C         43.9380   19.6740   12.8920 C.2    43  LYS43       0.2617
     23  O         44.3930   20.7280   12.5270 O.2    43  LYS43      -0.2715
     24  CB        42.8990   18.0310   11.4310 C.3    43  LYS43       0.0311
     25  CG        42.8610   16.7360   10.6530 C.3    43  LYS43       0.0038
     26  CD        41.4400   16.4800   10.1240 C.3    43  LYS43       0.0206
     27  CE        40.5180   15.8910   11.2110 C.3    43  LYS43       0.1093
     28  NZ        40.9840   14.5590   11.6940 N.3    43  LYS43      -0.1314
     29  N         43.1650   19.5750   13.9660 N.am   44  SER44      -0.1936
     30  CA        42.7890   20.7660   14.7440 C.3    44  SER44       0.2055
     31  C         43.9770   21.4670   15.4010 C.2    44  SER44       0.2643
     32  O         44.0060   22.6910   15.4930 O.2    44  SER44      -0.2714
     33  CB        41.7260   20.4180   15.7930 C.3    44  SER44       0.2130
     34  OG        40.5660   19.8740   15.1690 O.3    44  SER44      -0.2179
     35  N         44.9580   20.6940   15.8370 N.am   45  SER45      -0.1949
     36  CA        46.1560   21.2530   16.4260 C.3    45  SER45       0.1924
     37  C         47.0650   22.0120   15.4190 C.2    45  SER45       0.2314
     38  O         47.7430   22.9740   15.8090 O.2    45  SER45      -0.2863
     39  CB        46.9410   20.1360   17.1140 C.3    45  SER45       0.2116
     40  OG        46.1530   19.5520   18.1390 O.3    45  SER45      -0.2180
     41  N         38.7840   22.8240   18.6400 N.3    57  ARG57      -0.1182
     42  CA        38.9020   21.8940   19.7990 C.3    57  ARG57       0.1910
     43  C         39.9720   20.7960   19.5150 C.2    57  ARG57       0.2634
     44  O         40.0940   20.3180   18.3970 O.2    57  ARG57      -0.2714
     45  CB        37.5200   21.2820   20.2150 C.2    57  ARG57       0.0007
     46  CG        37.0810   21.4270   21.7790 C.2    57  ARG57       0.0176
     47  CD        35.8020   20.5450   22.2730 C.3    57  ARG57       0.2464
     48  NE        36.1440   19.2820   22.9880 N.pl3  57  ARG57      -0.0815
     49  CZ        36.2650   18.0510   22.4390 C.cat  57  ARG57       0.5349
     50  NH1       36.0770   17.8480   21.1290 N.pl3  57  ARG57       0.1354
     51  NH2       36.5960   16.9930   23.2060 N.pl3  57  ARG57       0.1354
     52  N         40.7460   20.4360   20.5430 N.am   58  VAL58      -0.1963
     53  CA        41.8290   19.4460   20.4770 C.3    58  VAL58       0.1727
     54  C         41.5320   18.2920   21.4920 C.2    58  VAL58       0.2617
     55  O         41.3420   18.5740   22.6800 O.2    58  VAL58      -0.2715
     56  CB        43.1840   20.1680   20.7830 C.3    58  VAL58       0.0290
     57  CG1       44.3310   19.2230   20.8350 C.3    58  VAL58       0.0023
     58  CG2       43.4520   21.2240   19.7530 C.3    58  VAL58       0.0023
     59  N         41.4630   17.0200   21.0320 N.am   59  SER59      -0.1936
     60  CA        41.2020   15.8170   21.9180 C.3    59  SER59       0.2040
     61  C         41.6780   14.3950   21.4130 C.2    59  SER59       0.2485
     62  O         41.4470   14.0290   20.2480 O.2    59  SER59      -0.2729
     63  CB        39.6980   15.7590   22.2880 C.3    59  SER59       0.2129
     64  OG        39.3070   14.5070   22.8390 O.3    59  SER59      -0.2179
     65  N         42.3550   13.5860   22.2900 N.am   60  PRO60      -0.2715
     66  CA        42.5810   12.1010   22.0560 C.3    60  PRO60       0.1536
     67  C         41.4220   11.1870   21.4780 C.2    60  PRO60       0.2598
     68  O         41.7100   10.2740   20.6820 O.2    60  PRO60      -0.2715
     69  CB        43.0190   11.5750   23.4540 C.3    60  PRO60       0.0310
     70  CG        43.5240   12.7720   24.2130 C.3    60  PRO60       0.0237
     71  CD        43.0590   14.0560   23.5130 C.3    60  PRO60       0.0939
     72  N         40.1580   11.4340   21.8580 N.am   61  PHE61      -0.1974
     73  CA        39.0500   10.4680   21.6550 C.3    61  PHE61       0.1639
     74  C         38.2630   10.6590   20.3440 C.2    61  PHE61       0.2290
     75  O         37.6510   11.6950   20.1090 O.2    61  PHE61      -0.2864
     76  CB        38.1230   10.4700   22.9050 C.3    61  PHE61       0.0560
     77  CG        38.7830    9.9060   24.1900 C.ar   61  PHE61      -0.0200
     78  CD1       40.1560    9.5640   24.2320 C.ar   61  PHE61      -0.0042
     79  CD2       38.0420    9.7290   25.3520 C.ar   61  PHE61      -0.0042
     80  CE1       40.7710    9.0520   25.3930 C.ar   61  PHE61      -0.0003
     81  CE2       38.6540    9.2140   26.5260 C.ar   61  PHE61      -0.0003
     82  CZ        40.0260    8.8790   26.5320 C.ar   61  PHE61      -0.0000
     83  N         37.6610   20.1330    9.9840 N.3    81  THR81      -0.1204
     84  CA        36.6200   19.2030    9.6040 C.3    81  THR81       0.1979
     85  C         36.5330   18.1350   10.7180 C.2    81  THR81       0.2460
     86  O         37.5310   17.9160   11.4360 O.2    81  THR81      -0.2732
     87  CB        36.9100   18.5490    8.1810 C.3    81  THR81       0.1783
     88  OG1       38.1580   17.8350    8.1920 O.3    81  THR81      -0.2211
     89  CG2       36.9170   19.5950    7.0320 C.3    81  THR81       0.0376
     90  N         35.3690   17.4470   10.8680 N.am   82  PRO82      -0.2717
     91  CA        35.3890   16.2670   11.7230 C.3    82  PRO82       0.1535
     92  C         36.2170   15.1370   11.0290 C.2    82  PRO82       0.2599
     93  O         36.2520   15.0670    9.7970 O.2    82  PRO82      -0.2715
     94  CB        33.9010   15.9130   11.8290 C.3    82  PRO82       0.0310
     95  CG        33.3380   16.3030   10.4940 C.3    82  PRO82       0.0237
     96  CD        34.0370   17.6270   10.2510 C.3    82  PRO82       0.0939
     97  N         36.8930   14.2760   11.7830 N.am   83  GLY83      -0.1955
     98  CA        37.6650   13.1930   11.1830 C.3    83  GLY83       0.1869
     99  C         36.8190   12.3330   10.2910 C.2    83  GLY83       0.2309
    100  O         35.6080   12.2730   10.4680 O.2    83  GLY83      -0.2863
    101  N         49.8610   11.4880   10.4870 N.3   115  ARG115     -0.1245
    102  CA        50.9800   11.4510   11.4020 C.3   115  ARG115      0.1563
    103  C         52.2380   10.9090   10.7650 C.2   115  ARG115      0.2260
    104  O         52.1670   10.0270    9.9200 O.2   115  ARG115     -0.2867
    105  CB        50.6350   10.5380   12.5720 C.3   115  ARG115      0.0307
    106  CG        49.4650   11.0150   13.3820 C.3   115  ARG115      0.0489
    107  CD        49.0240    9.9690   14.4000 C.3   115  ARG115      0.2205
    108  NE        50.0690    9.7350   15.3950 N.pl3 115  ARG115     -0.0865
    109  CZ        49.8320    9.4840   16.6740 C.cat 115  ARG115      0.5346
    110  NH1       48.6070    9.4370   17.1150 N.pl3 115  ARG115      0.1354
    111  NH2       50.8150    9.2690   17.5220 N.pl3 115  ARG115      0.1354
    112  N         52.1800   15.3670   10.8420 N.3   149  THR149     -0.1203
    113  CA        52.2620   15.8600   12.2010 C.3   149  THR149      0.1994
    114  C         53.1750   14.9180   12.9980 C.2   149  THR149      0.2617
    115  O         53.5790   13.8350   12.4860 O.2   149  THR149     -0.2717
    116  CB        50.8670   15.9350   12.8200 C.3   149  THR149      0.1784
    117  OG1       50.2920   14.6180   12.8440 O.3   149  THR149     -0.2211
    118  CG2       49.9520   16.9420   12.0070 C.3   149  THR149      0.0376
    119  N         53.5250   15.3290   14.2240 N.am  150  HIS150     -0.1975
    120  CA        54.4280   14.5690   15.0970 C.3   150  HIS150      0.1656
    121  C         55.8340   14.4990   14.5390 C.2   150  HIS150      0.2291
    122  O         56.5420   13.5270   14.8090 O.2   150  HIS150     -0.2864
    123  CB        53.8850   13.1510   15.3610 C.3   150  HIS150      0.0771
    124  CG        52.5890   13.1360   16.1160 C.ar  150  HIS150      0.0820
    125  ND1       52.4630   12.5850   17.3820 N.ar  150  HIS150     -0.2267
    126  CD2       51.3670   13.6190   15.7910 C.ar  150  HIS150      0.1154
    127  CE1       51.2210   12.7390   17.8050 C.ar  150  HIS150      0.1986
    128  NE2       50.5320   13.3570   16.8550 N.ar  150  HIS150     -0.2212
    129  N         54.8480   18.9640   10.4760 N.3   197  ALA197     -0.1231
    130  CA        54.2280   19.7970   11.5080 C.3   197  ALA197      0.1694
    131  C         54.5670   19.1730   12.8590 C.2   197  ALA197      0.2592
    132  O         54.4520   17.9750   13.0060 O.2   197  ALA197     -0.2718
    133  CB        52.6760   19.8800   11.3020 C.3   197  ALA197      0.0304
    134  N         55.0500   19.9480   13.8190 N.am  198  GLU198     -0.1966
    135  CA        55.0850   19.4950   15.2060 C.3   198  GLU198      0.1733
    136  C         54.2910   20.4590   16.1300 C.2   198  GLU198      0.2616
    137  O         54.7300   21.5510   16.4320 O.2   198  GLU198     -0.2715
    138  CB        56.5260   19.2890   15.6810 C.3   198  GLU198      0.0429
    139  CG        56.6560   18.8300   17.1420 C.3   198  GLU198      0.1163
    140  CD        55.9970   17.4810   17.4550 C.2   198  GLU198      0.3649
    141  OE1       56.5670   16.4010   17.1470 O.co2 198  GLU198     -0.2457
    142  OE2       54.9120   17.5100   18.0750 O.co2 198  GLU198     -0.2457
    143  N         53.1180   20.0200   16.5680 N.am  199  ASN199     -0.1958
    144  CA        52.2090   20.8340   17.3600 C.3   199  ASN199      0.1819
    145  C         52.4690   20.7890   18.8760 C.2   199  ASN199      0.2622
    146  O         51.7800   21.4710   19.6350 O.2   199  ASN199     -0.2715
    147  CB        50.7600   20.3970   17.0780 C.3   199  ASN199      0.1195
    148  CG        50.3970   20.4890   15.6290 C.2   199  ASN199      0.2630
    149  OD1       50.5150   21.5350   15.0320 O.2   199  ASN199     -0.2716
    150  ND2       49.9500   19.3980   15.0600 N.am  199  ASN199     -0.0877
    151  N         53.4410   19.9820   19.3180 N.am  200  SER200     -0.1950
    152  CA        53.7260   19.7800   20.7460 C.3   200  SER200      0.1924
    153  C         54.4000   21.0270   21.3220 C.2   200  SER200      0.2314
    154  O         55.1950   21.6640   20.6220 O.2   200  SER200     -0.2863
    155  CB        54.6380   18.5760   20.9310 C.3   200  SER200      0.2116
    156  OG        54.9080   18.3400   22.3030 O.3   200  SER200     -0.2180
@<TRIPOS>BOND
     1    89    87    1
     2    87    88    1
     3    87    84    1
     4    84    83    1
     5    84    85    1
     6    93    92    2
     7   104   103    2
     8    26    25    1
     9    26    27    1
    10    96    95    1
    11    96    90    1
    12    99   100    2
    13    99    98    1
    14   129   130    1
    15   101   102    1
    16    95    94    1
    17    25    24    1
    18    85    90   am
    19    85    86    2
    20   103   102    1
    21   112   113    1
    22    90    91    1
    23    92    91    1
    24    92    97   am
    25    15    13    1
    26    98    97    1
    27    27    28    1
    28   133   130    1
    29   102   105    1
    30    24    21    1
    31   130   131    1
    32    14    13    1
    33    91    94    1
    34     1     2    1
    35    13    10    1
    36   118   116    1
    37    21    22    1
    38    21    20    1
    39   113   116    1
    40   113   114    1
    41   115   114    2
    42    23    22    2
    43   105   106    1
    44   116   117    1
    45   131   132    2
    46   131   134   am
    47    22    29   am
    48   114   119   am
    49    20    18   am
    50     2     3    1
    51    12    11    2
    52    10    11    1
    53    10     9    1
    54   106   107    1
    55    19    18    2
    56    11    16   am
    57    18    17    1
    58     4     3    2
    59   134   135    1
    60     3     5   am
    61    29    30    1
    62     9     7   am
    63   119   120    1
    64    16    17    1
    65   107   108    1
    66   121   122    2
    67   121   120    1
    68     5     6    1
    69    30    31    1
    70    30    33    1
    71   149   148    2
    72   150   148   am
    73   120   123    1
    74    34    33    1
    75   135   138    1
    76   135   136    1
    77     7     6    1
    78     7     8    2
    79   123   124    1
    80   108   109    2
    81    31    32    2
    82    31    35   am
    83    37    38    2
    84    37    36    1
    85   148   147    1
    86   138   139    1
    87   126   124   ar
    88   126   128   ar
    89    35    36    1
    90   124   125   ar
    91   136   137    2
    92   136   143   am
    93    36    39    1
    94   143   144    1
    95   109   110    1
    96   109   111    1
    97   128   127   ar
    98   147   144    1
    99    39    40    1
   100   139   140    1
   101   141   140   ar
   102   144   145    1
   103   125   127   ar
   104   140   142   ar
   105    44    43    2
   106    41    42    1
   107   145   151   am
   108   145   146    2
   109   151   152    1
   110    43    42    1
   111    43    52   am
   112    58    56    1
   113    42    45    1
   114    75    74    2
   115    45    46    2
   116    62    61    2
   117    74    73    1
   118    53    52    1
   119    53    56    1
   120    53    54    1
   121   154   153    2
   122    68    67    2
   123   152   155    1
   124   152   153    1
   125    56    57    1
   126   155   156    1
   127    59    54   am
   128    59    60    1
   129    50    49    1
   130    61    60    1
   131    61    65   am
   132    67    72   am
   133    67    66    1
   134    54    55    2
   135    73    72    1
   136    73    76    1
   137    46    47    1
   138    60    63    1
   139    66    65    1
   140    66    69    1
   141    47    48    1
   142    63    64    1
   143    65    71    1
   144    49    48    2
   145    49    51    1
   146    76    77    1
   147    69    70    1
   148    71    70    1
   149    77    78   ar
   150    77    79   ar
   151    78    80   ar
   152    79    81   ar
   153    80    82   ar
   154    81    82   ar
