@<TRIPOS>MOLECULE
tmp/3bb5D00.pdb
 97 90 0 0 0
SMALL
GASTEIGER

@<TRIPOS>ATOM
      1  N        -50.0030  -54.6500  -18.1330 N.3     9  HIS9       -0.1241
      2  CA       -49.0300  -54.4900  -17.0740 C.3     9  HIS9        0.1621
      3  C        -48.9400  -55.8210  -16.3330 C.2     9  HIS9        0.2264
      4  O        -49.8810  -56.2320  -15.6690 O.2     9  HIS9       -0.2867
      5  CB       -49.5400  -53.3830  -16.1470 C.3     9  HIS9        0.0745
      6  CG       -48.6850  -53.0900  -14.9470 C.ar    9  HIS9        0.0817
      7  ND1      -47.5030  -52.3770  -15.0210 N.ar    9  HIS9       -0.2268
      8  CD2      -48.9170  -53.2970  -13.6270 C.ar    9  HIS9        0.1154
      9  CE1      -47.0240  -52.2020  -13.8020 C.ar    9  HIS9        0.1986
     10  NE2      -47.8610  -52.7520  -12.9380 N.ar    9  HIS9       -0.2212
     11  N        -46.8460  -58.2240  -13.6870 N.3    11  VAL11      -0.1245
     12  CA       -45.9450  -58.2160  -12.5230 C.3    11  VAL11       0.1561
     13  C        -45.7070  -59.6680  -12.0770 C.2    11  VAL11       0.2260
     14  O        -46.6530  -60.3500  -11.7350 O.2    11  VAL11      -0.2867
     15  CB       -46.5110  -57.3570  -11.3550 C.3    11  VAL11       0.0252
     16  CG1      -45.4980  -57.2720  -10.2360 C.3    11  VAL11       0.0019
     17  CG2      -46.9080  -55.9580  -11.8750 C.3    11  VAL11       0.0019
     18  N        -55.7100  -55.3480   -4.0710 N.3    27  LEU27      -0.1245
     19  CA       -55.7690  -54.9800   -5.4810 C.3    27  LEU27       0.1561
     20  C        -57.0500  -55.4800   -6.2030 C.2    27  LEU27       0.2260
     21  O        -57.5980  -54.7720   -7.0580 O.2    27  LEU27      -0.2867
     22  CB       -54.4980  -55.4520   -6.2060 C.3    27  LEU27       0.0270
     23  CG       -53.1960  -54.7740   -5.7700 C.3    27  LEU27       0.0019
     24  CD1      -52.0330  -55.3200   -6.5350 C.3    27  LEU27       0.0001
     25  CD2      -53.3060  -53.2510   -5.9330 C.3    27  LEU27       0.0001
     26  N        -49.2860  -61.3430  -11.5510 N.3    59  PHE59      -0.1241
     27  CA       -50.5520  -60.7510  -11.9530 C.3    59  PHE59       0.1605
     28  C        -50.4780  -59.9020  -13.1970 C.2    59  PHE59       0.2264
     29  O        -49.4070  -59.4180  -13.5450 O.2    59  PHE59      -0.2867
     30  CB       -51.2160  -59.9770  -10.8030 C.3    59  PHE59       0.0534
     31  CG       -50.4540  -58.7860  -10.2920 C.ar   59  PHE59      -0.0203
     32  CD1      -49.5220  -58.9160   -9.2840 C.ar   59  PHE59      -0.0042
     33  CD2      -50.7730  -57.5100  -10.7210 C.ar   59  PHE59      -0.0042
     34  CE1      -48.8940  -57.7790   -8.7360 C.ar   59  PHE59      -0.0003
     35  CE2      -50.1200  -56.3800  -10.1940 C.ar   59  PHE59      -0.0003
     36  CZ       -49.1940  -56.5170   -9.2080 C.ar   59  PHE59      -0.0000
     37  N        -53.4800  -45.5810  -11.3760 N.3    72  TYR72      -0.1241
     38  CA       -53.3440  -46.7640  -10.5440 C.3    72  TYR72       0.1605
     39  C        -52.0660  -46.6700   -9.7260 C.2    72  TYR72       0.2264
     40  O        -52.0480  -47.0080   -8.5240 O.2    72  TYR72      -0.2867
     41  CB       -53.3590  -48.0030  -11.4540 C.3    72  TYR72       0.0534
     42  CG       -52.7100  -49.2820  -10.9220 C.ar   72  TYR72      -0.0201
     43  CD1      -51.3420  -49.5100  -11.0920 C.ar   72  TYR72      -0.0009
     44  CD2      -53.4660  -50.3000  -10.3360 C.ar   72  TYR72      -0.0009
     45  CE1      -50.7400  -50.6720  -10.6700 C.ar   72  TYR72       0.0417
     46  CE2      -52.8460  -51.5040   -9.8930 C.ar   72  TYR72       0.0417
     47  CZ       -51.4710  -51.6500  -10.0590 C.ar   72  TYR72       0.1957
     48  OH       -50.8140  -52.7790   -9.6430 O.3    72  TYR72      -0.2866
     49  N        -53.0820  -48.8590   -4.1910 N.3    78  HIS78      -0.1241
     50  CA       -51.9670  -49.4410   -4.9050 C.3    78  HIS78       0.1621
     51  C        -50.6240  -49.2470   -4.2100 C.2    78  HIS78       0.2264
     52  O        -49.8350  -50.1640   -4.1290 O.2    78  HIS78      -0.2867
     53  CB       -51.8420  -48.9000   -6.3200 C.3    78  HIS78       0.0745
     54  CG       -50.5890  -49.3610   -6.9850 C.ar   78  HIS78       0.0817
     55  ND1      -49.5190  -48.5270   -7.2130 N.ar   78  HIS78      -0.2268
     56  CD2      -50.1880  -50.5990   -7.3410 C.ar   78  HIS78       0.1154
     57  CE1      -48.5300  -49.2240   -7.7370 C.ar   78  HIS78       0.1986
     58  NE2      -48.9090  -50.4850   -7.8190 N.ar   78  HIS78      -0.2212
     59  N        -48.2920  -52.2840   -3.1210 N.3    82  GLY82      -0.1225
     60  CA       -46.9810  -52.2410   -3.7050 C.3    82  GLY82       0.1811
     61  C        -45.8860  -52.3630   -2.6730 C.2    82  GLY82       0.2280
     62  O        -44.8610  -53.0060   -2.9210 O.2    82  GLY82      -0.2866
     63  N        -45.7740  -56.0290   -1.4660 N.3    84  LEU84      -0.1231
     64  CA       -45.1130  -56.8800   -2.4720 C.3    84  LEU84       0.1693
     65  C        -43.5770  -56.7310   -2.4010 C.2    84  LEU84       0.2591
     66  O        -42.8580  -57.7130   -2.4090 O.2    84  LEU84      -0.2718
     67  CB       -45.6000  -56.5160   -3.8730 C.3    84  LEU84       0.0284
     68  CG       -47.0720  -56.7720   -4.1980 C.3    84  LEU84       0.0019
     69  CD1      -47.3720  -56.2710   -5.5950 C.3    84  LEU84       0.0001
     70  CD2      -47.4260  -58.2330   -4.0470 C.3    84  LEU84       0.0001
     71  N        -43.0870  -55.5030   -2.3350 N.am   85  VAL85      -0.1980
     72  CA       -41.6430  -55.2480   -2.1420 C.3    85  VAL85       0.1595
     73  C        -41.1490  -55.9160   -0.8390 C.2    85  VAL85       0.2287
     74  O        -40.1910  -56.6530   -0.8590 O.2    85  VAL85      -0.2864
     75  CB       -41.3580  -53.7000   -2.1850 C.3    85  VAL85       0.0276
     76  CG1      -39.9550  -53.3630   -1.7130 C.3    85  VAL85       0.0022
     77  CG2      -41.6160  -53.1550   -3.5880 C.3    85  VAL85       0.0022
     78  N        -37.5380  -54.7210   -4.5070 N.3    92  ALA92      -0.1245
     79  CA       -37.9430  -54.3850   -5.8660 C.3    92  ALA92       0.1562
     80  C        -37.1560  -55.1710   -6.9280 C.2    92  ALA92       0.2260
     81  O        -37.6540  -55.3490   -8.0320 O.2    92  ALA92      -0.2867
     82  CB       -37.7950  -52.8810   -6.1040 C.3    92  ALA92       0.0290
     83  N        -38.9280  -58.2870   -8.3830 N.3    95  ILE95      -0.1245
     84  CA       -40.1960  -57.9970   -9.0740 C.3    95  ILE95       0.1561
     85  C        -39.8630  -57.6370  -10.5370 C.2    95  ILE95       0.2260
     86  O        -39.1010  -56.6990  -10.8090 O.2    95  ILE95      -0.2867
     87  CB       -40.9970  -56.8630   -8.3650 C.3    95  ILE95       0.0252
     88  CG1      -41.2510  -57.2270   -6.8920 C.3    95  ILE95       0.0019
     89  CG2      -42.3430  -56.5750   -9.1110 C.3    95  ILE95       0.0019
     90  CD1      -42.1320  -56.2330   -6.1140 C.3    95  ILE95       0.0001
     91  N        -41.4660  -56.2700  -13.9010 N.3    97  VAL97      -0.1245
     92  CA       -42.6330  -55.5840  -14.4680 C.3    97  VAL97       0.1561
     93  C        -42.4130  -55.4370  -15.9800 C.2    97  VAL97       0.2260
     94  O        -41.3060  -55.1120  -16.4320 O.2    97  VAL97      -0.2867
     95  CB       -42.9440  -54.2320  -13.7740 C.3    97  VAL97       0.0252
     96  CG1      -44.2380  -53.6310  -14.3430 C.3    97  VAL97       0.0019
     97  CG2      -43.0760  -54.4440  -12.2700 C.3    97  VAL97       0.0019
@<TRIPOS>BOND
     1     1     2    1
     2     2     3    1
     3     2     5    1
     4    94    93    2
     5     3     4    2
     6     5     6    1
     7    93    92    1
     8     7     6   ar
     9     7     9   ar
    10     6     8   ar
    11    92    91    1
    12    92    95    1
    13    96    95    1
    14     9    10   ar
    15    95    97    1
    16    11    12    1
    17     8    10   ar
    18    29    28    2
    19    28    27    1
    20    12    13    1
    21    12    15    1
    22    13    14    2
    23    27    26    1
    24    27    30    1
    25    17    15    1
    26    41    42    1
    27    41    38    1
    28    37    38    1
    29    15    16    1
    30    43    42   ar
    31    43    45   ar
    32    42    44   ar
    33    86    85    2
    34    30    31    1
    35    33    31   ar
    36    33    35   ar
    37    45    47   ar
    38    38    39    1
    39    85    84    1
    40    44    46   ar
    41    31    32   ar
    42    35    36   ar
    43    47    46   ar
    44    47    48    1
    45    39    40    2
    46    32    34   ar
    47    36    34   ar
    48    89    87    1
    49    84    83    1
    50    84    87    1
    51    87    88    1
    52    81    80    2
    53    58    57   ar
    54    58    56   ar
    55    57    55   ar
    56    56    54   ar
    57    55    54   ar
    58    21    20    2
    59    54    53    1
    60    80    79    1
    61    88    90    1
    62    24    23    1
    63    53    50    1
    64    22    23    1
    65    22    19    1
    66    20    19    1
    67    82    79    1
    68    25    23    1
    69    79    78    1
    70    69    68    1
    71    19    18    1
    72    50    51    1
    73    50    49    1
    74    51    52    2
    75    68    70    1
    76    68    67    1
    77    67    64    1
    78    60    59    1
    79    60    61    1
    80    77    75    1
    81    62    61    2
    82    64    65    1
    83    64    63    1
    84    66    65    2
    85    65    71   am
    86    71    72    1
    87    75    72    1
    88    75    76    1
    89    72    73    1
    90    74    73    2
