@<TRIPOS>MOLECULE
tmp/3bb8A00.pdb
 134 124 0 0 0
SMALL
GASTEIGER

@<TRIPOS>ATOM
      1  N         29.6110   51.4470   11.5890 N.3    84  SER84      -0.1202
      2  CA        29.6730   50.2470   10.7830 C.3    84  SER84       0.2020
      3  C         30.5970   49.2400   11.4330 C.2    84  SER84       0.2619
      4  O         31.2750   49.5460   12.4120 O.2    84  SER84      -0.2717
      5  CB        30.2430   50.5960    9.3960 C.3    84  SER84       0.2103
      6  OG        31.5770   51.0900    9.5070 O.3    84  SER84      -0.2182
      7  N         30.6400   48.0400   10.8600 N.am   85  GLY85      -0.1942
      8  CA        31.5330   47.0300   11.3800 C.3    85  GLY85       0.2014
      9  C         32.9690   47.4980   11.1750 C.2    85  GLY85       0.2639
     10  O         33.8360   47.2690   12.0360 O.2    85  GLY85      -0.2714
     11  N         33.2300   48.1520   10.0420 N.am   86  SER86      -0.1949
     12  CA        34.5780   48.6470    9.7560 C.3    86  SER86       0.1924
     13  C         34.9620   49.7020   10.8060 C.2    86  SER86       0.2314
     14  O         36.0850   49.7340   11.2920 O.2    86  SER86      -0.2863
     15  CB        34.6430   49.2700    8.3550 C.3    86  SER86       0.2116
     16  OG        34.2740   48.3450    7.3450 O.3    86  SER86      -0.2180
     17  N         35.8930   47.9580   14.0290 N.3    89  ASN89      -0.1240
     18  CA        37.2630   47.4400   13.9710 C.3    89  ASN89       0.1653
     19  C         38.2560   48.5870   14.1640 C.2    89  ASN89       0.2266
     20  O         39.2460   48.4410   14.8870 O.2    89  ASN89      -0.2867
     21  CB        37.5420   46.7450   12.6320 C.3    89  ASN89       0.1155
     22  CG        36.9400   45.3420   12.5540 C.2    89  ASN89       0.2627
     23  OD1       36.8270   44.7580   11.4780 O.2    89  ASN89      -0.2716
     24  ND2       36.5630   44.7990   13.6930 N.am   89  ASN89      -0.0877
     25  N         38.5660   40.1040    5.2610 N.3   119  PHE119     -0.1241
     26  CA        37.9480   41.3410    4.8210 C.3   119  PHE119      0.1605
     27  C         38.9200   42.4920    5.0720 C.2   119  PHE119      0.2264
     28  O         39.5810   42.5330    6.1110 O.2   119  PHE119     -0.2867
     29  CB        36.6420   41.5760    5.5800 C.3   119  PHE119      0.0534
     30  CG        35.7990   42.6530    4.9790 C.ar  119  PHE119     -0.0203
     31  CD1       35.1260   42.4280    3.7840 C.ar  119  PHE119     -0.0042
     32  CD2       35.7510   43.9220    5.5500 C.ar  119  PHE119     -0.0042
     33  CE1       34.4210   43.4520    3.1570 C.ar  119  PHE119     -0.0003
     34  CE2       35.0510   44.9500    4.9300 C.ar  119  PHE119     -0.0003
     35  CZ        34.3870   44.7140    3.7310 C.ar  119  PHE119     -0.0000
     36  N         38.7950   45.7960    6.0290 N.3   121  THR121     -0.1203
     37  CA        38.7530   46.5850    7.2580 C.3   121  THR121      0.1994
     38  C         39.0870   45.8340    8.5600 C.2   121  THR121      0.2618
     39  O         39.1090   46.4220    9.6470 O.2   121  THR121     -0.2717
     40  CB        37.4130   47.3240    7.3800 C.3   121  THR121      0.1784
     41  OG1       36.3300   46.3900    7.4280 O.3   121  THR121     -0.2211
     42  CG2       37.2280   48.2400    6.1740 C.3   121  THR121      0.0376
     43  N         39.3610   44.5390    8.4510 N.am  122  THR122     -0.1952
     44  CA        39.7640   43.7570    9.6270 C.3   122  THR122      0.1897
     45  C         41.2320   44.1030    9.8610 C.2   122  THR122      0.2313
     46  O         41.7040   44.1760   10.9950 O.2   122  THR122     -0.2863
     47  CB        39.6750   42.2360    9.3600 C.3   122  THR122      0.1794
     48  OG1       38.3040   41.8570    9.2610 O.3   122  THR122     -0.2208
     49  CG2       40.3540   41.4280   10.4790 C.3   122  THR122      0.0378
     50  N         39.3060   37.6940   12.2870 N.3   164  ALA164     -0.1245
     51  CA        37.8590   37.5490   12.2480 C.3   164  ALA164      0.1562
     52  C         37.4430   36.0800   12.2010 C.2   164  ALA164      0.2260
     53  O         38.1600   35.2520   11.6440 O.2   164  ALA164     -0.2867
     54  CB        37.2960   38.2810   11.0230 C.3   164  ALA164      0.0290
     55  N         35.8590   34.0560   10.3990 N.3   166  THR166     -0.1218
     56  CA        35.4140   34.0480    9.0090 C.3   166  THR166      0.1862
     57  C         34.1290   33.3100    8.6950 C.2   166  THR166      0.2287
     58  O         33.9960   32.1300    8.9810 O.2   166  THR166     -0.2866
     59  CB        36.5400   33.5210    8.1100 C.3   166  THR166      0.1770
     60  OG1       37.7190   34.2940    8.3580 O.3   166  THR166     -0.2211
     61  CG2       36.1660   33.6360    6.6370 C.3   166  THR166      0.0375
     62  N         37.1580   39.9660   15.5530 N.3   190  ASP190     -0.1239
     63  CA        36.2470   40.5680   14.5860 C.3   190  ASP190      0.1674
     64  C         35.1360   39.5340   14.3850 C.2   190  ASP190      0.2266
     65  O         35.3440   38.4990   13.7500 O.2   190  ASP190     -0.2867
     66  CB        36.9720   40.8400   13.2620 C.3   190  ASP190      0.1410
     67  CG        36.0460   41.4030   12.1840 C.2   190  ASP190      0.3668
     68  OD1       36.5740   41.9760   11.2010 O.co2 190  ASP190     -0.2456
     69  OD2       34.8030   41.2660   12.3080 O.co2 190  ASP190     -0.2456
     70  N         32.1690   40.4260   13.0490 N.3   192  CYS192     -0.1221
     71  CA        31.2240   41.0790   12.1520 C.3   192  CYS192      0.1808
     72  C         30.3620   40.1110   11.3390 C.2   192  CYS192      0.2601
     73  O         29.2800   40.4800   10.8720 O.2   192  CYS192     -0.2717
     74  CB        31.9600   42.0470   11.2260 C.3   192  CYS192      0.0970
     75  SG        32.5360   43.5530   12.0880 S.3   192  CYS192     -0.0800
     76  N         30.8340   38.8820   11.1550 N.am  193  ASP193     -0.1973
     77  CA        30.0490   37.8950   10.4100 C.3   193  ASP193      0.1709
     78  C         29.7540   36.6970   11.2990 C.2   193  ASP193      0.2293
     79  O         29.3570   35.6370   10.8010 O.2   193  ASP193     -0.2864
     80  CB        30.8140   37.3770    9.1910 C.3   193  ASP193      0.1436
     81  CG        31.1990   38.4700    8.2250 C.2   193  ASP193      0.3671
     82  OD1       30.3760   39.3650    7.9550 O.co2 193  ASP193     -0.2456
     83  OD2       32.3310   38.4180    7.7130 O.co2 193  ASP193     -0.2456
     84  N         29.0400   43.8400   12.9250 N.3   214  SER214     -0.1217
     85  CA        28.5090   44.7480   11.9100 C.3   214  SER214      0.1889
     86  C         26.9960   44.6430   11.7120 C.2   214  SER214      0.2288
     87  O         26.4170   43.5820   11.9110 O.2   214  SER214     -0.2866
     88  CB        29.1970   44.4680   10.5730 C.3   214  SER214      0.2089
     89  OG        28.4820   45.0680    9.5050 O.3   214  SER214     -0.2183
     90  N         25.4530   45.8100    8.7090 N.3   216  TYR216     -0.1241
     91  CA        25.2430   46.0810    7.2920 C.3   216  TYR216      0.1605
     92  C         24.1230   45.0790    6.9010 C.2   216  TYR216      0.2264
     93  O         24.0110   44.0110    7.5020 O.2   216  TYR216     -0.2867
     94  CB        26.5450   45.7980    6.5310 C.3   216  TYR216      0.0534
     95  CG        26.4980   46.1670    5.0740 C.ar  216  TYR216     -0.0201
     96  CD1       26.3760   47.4960    4.6800 C.ar  216  TYR216     -0.0009
     97  CD2       26.5050   45.1850    4.0870 C.ar  216  TYR216     -0.0009
     98  CE1       26.2530   47.8400    3.3460 C.ar  216  TYR216      0.0417
     99  CE2       26.3850   45.5200    2.7490 C.ar  216  TYR216      0.0417
    100  CZ        26.2560   46.8480    2.3880 C.ar  216  TYR216      0.1957
    101  OH        26.1080   47.1900    1.0650 O.3   216  TYR216     -0.2866
    102  N         24.6040   41.2550    6.9950 N.3   219  LYS219     -0.1245
    103  CA        24.9290   40.5860    8.2490 C.3   219  LYS219      0.1561
    104  C         23.7330   40.0120    9.0540 C.2   219  LYS219      0.2260
    105  O         22.5750   40.1650    8.6710 O.2   219  LYS219     -0.2867
    106  CB        25.8130   41.5310    9.0910 C.3   219  LYS219      0.0271
    107  CG        27.3610   41.4330    8.7820 C.3   219  LYS219      0.0035
    108  CD        27.8760   42.1290    7.4820 C.3   219  LYS219      0.0206
    109  CE        29.3050   41.6230    7.0910 C.3   219  LYS219      0.1093
    110  NZ        30.2620   42.4160    6.1570 N.3   219  LYS219     -0.1314
    111  N         23.2220   50.7340    8.1140 N.3   225  GLU225     -0.1231
    112  CA        24.6590   50.8930    8.2850 C.3   225  GLU225      0.1699
    113  C         24.7950   51.0450    9.7950 C.2   225  GLU225      0.2592
    114  O         24.0230   51.7820   10.4120 O.2   225  GLU225     -0.2718
    115  CB        25.1830   52.1450    7.5820 C.3   225  GLU225      0.0402
    116  CG        25.0910   52.1070    6.0640 C.3   225  GLU225      0.1161
    117  CD        26.2220   51.3320    5.3910 C.2   225  GLU225      0.3649
    118  OE1       27.0560   50.7070    6.0880 O.co2 225  GLU225     -0.2457
    119  OE2       26.2680   51.3540    4.1440 O.co2 225  GLU225     -0.2457
    120  N         25.7370   50.3140   10.3830 N.am  226  GLY226     -0.1957
    121  CA        25.9510   50.3940   11.8110 C.3   226  GLY226      0.1869
    122  C         26.7740   49.2200   12.2880 C.2   226  GLY226      0.2309
    123  O         26.9460   48.2400   11.5580 O.2   226  GLY226     -0.2863
    124  N         35.6140   37.5570   -0.1120 N.3   360  PHE360     -0.1241
    125  CA        36.0800   38.9240    0.0960 C.3   360  PHE360      0.1605
    126  C         37.3910   39.1430   -0.6550 C.2   360  PHE360      0.2264
    127  O         37.5170   38.7430   -1.8080 O.2   360  PHE360     -0.2867
    128  CB        36.2550   39.2180    1.5900 C.3   360  PHE360      0.0534
    129  CG        35.0200   38.9250    2.4090 C.ar  360  PHE360     -0.0203
    130  CD1       33.7650   39.3680    1.9870 C.ar  360  PHE360     -0.0042
    131  CD2       35.1020   38.1680    3.5760 C.ar  360  PHE360     -0.0042
    132  CE1       32.6060   39.0540    2.7130 C.ar  360  PHE360     -0.0003
    133  CE2       33.9460   37.8470    4.3150 C.ar  360  PHE360     -0.0003
    134  CZ        32.6990   38.2900    3.8780 C.ar  360  PHE360     -0.0000
@<TRIPOS>BOND
     1   127   126    2
     2   126   125    1
     3   124   125    1
     4   125   128    1
     5   101   100    1
     6   128   129    1
     7   130   129   ar
     8   130   132   ar
     9   100    99   ar
    10   100    98   ar
    11   129   131   ar
    12   132   134   ar
    13    99    97   ar
    14    33    35   ar
    15    33    31   ar
    16    98    96   ar
    17   131   133   ar
    18    35    34   ar
    19    31    30   ar
    20   134   133   ar
    21    97    95   ar
    22   119   117   ar
    23    96    95   ar
    24    26    27    1
    25    26    25    1
    26    26    29    1
    27    34    32   ar
    28    30    32   ar
    29    30    29    1
    30    27    28    2
    31    95    94    1
    32   117   116    1
    33   117   118   ar
    34    36    37    1
    35   116   115    1
    36   110   109    1
    37    42    40    1
    38    94    91    1
    39    61    59    1
    40    92    91    1
    41    92    93    2
    42   102   103    1
    43   109   108    1
    44    37    40    1
    45    37    38    1
    46    91    90    1
    47    16    15    1
    48    40    41    1
    49   108   107    1
    50   115   112    1
    51    83    81   ar
    52    82    81   ar
    53    59    60    1
    54    59    56    1
    55   111   112    1
    56    81    80    1
    57   103   104    1
    58   103   106    1
    59   112   113    1
    60    15    12    1
    61    43    38   am
    62    43    44    1
    63    38    39    2
    64   105   104    2
    65    57    58    2
    66    57    56    1
    67   107   106    1
    68    56    55    1
    69    80    77    1
    70    48    47    1
    71    47    44    1
    72    47    49    1
    73     5     6    1
    74     5     2    1
    75    89    88    1
    76    44    45    1
    77    12    11    1
    78    12    13    1
    79   113   120   am
    80   113   114    2
    81    45    46    2
    82    11     9   am
    83   120   121    1
    84    77    76    1
    85    77    78    1
    86    88    85    1
    87     2     3    1
    88     2     1    1
    89    79    78    2
    90    13    14    2
    91     7     8    1
    92     7     3   am
    93    73    72    2
    94    54    51    1
    95    76    72   am
    96     9     8    1
    97     9    10    2
    98    68    67   ar
    99    74    75    1
   100    74    71    1
   101    72    71    1
   102     3     4    2
   103    23    22    2
   104   123   122    2
   105    53    52    2
   106    86    85    1
   107    86    87    2
   108   121   122    1
   109    85    84    1
   110    71    70    1
   111    67    69   ar
   112    67    66    1
   113    52    51    1
   114    51    50    1
   115    22    21    1
   116    22    24   am
   117    21    18    1
   118    66    63    1
   119    65    64    2
   120    18    17    1
   121    18    19    1
   122    19    20    2
   123    64    63    1
   124    63    62    1
