@<TRIPOS>MOLECULE
tmp/3bbbB00.pdb
 112 104 0 0 0
SMALL
GASTEIGER

@<TRIPOS>ATOM
      1  N         -8.5440   12.2470   58.9960 N.3    11  LYS11      -0.1245
      2  CA        -8.7150   12.1260   60.4210 C.3    11  LYS11       0.1561
      3  C         -7.5500   11.3970   61.0580 C.2    11  LYS11       0.2260
      4  O         -6.7160   10.7990   60.4110 O.2    11  LYS11      -0.2867
      5  CB       -10.0470   11.4810   60.6920 C.3    11  LYS11       0.0271
      6  CG       -11.2250   12.2020   60.0990 C.3    11  LYS11       0.0035
      7  CD       -12.5430   11.6130   60.5030 C.3    11  LYS11       0.0206
      8  CE       -13.6950   12.4730   60.1650 C.3    11  LYS11       0.1093
      9  NZ       -14.9940   11.8420   60.5050 N.3    11  LYS11      -0.1314
     10  N        -17.5430   21.1970   63.9570 N.3    51  TYR51      -0.1241
     11  CA       -18.6870   20.3410   64.0510 C.3    51  TYR51       0.1605
     12  C        -19.8820   20.9160   64.7860 C.2    51  TYR51       0.2264
     13  O        -20.7370   20.1670   65.2750 O.2    51  TYR51      -0.2867
     14  CB       -18.2560   19.0500   64.7640 C.3    51  TYR51       0.0534
     15  CG       -17.3840   18.1250   63.9180 C.ar   51  TYR51      -0.0201
     16  CD1      -17.8320   17.6200   62.7090 C.ar   51  TYR51      -0.0009
     17  CD2      -16.0940   17.7620   64.3290 C.ar   51  TYR51      -0.0009
     18  CE1      -17.0340   16.7490   61.9480 C.ar   51  TYR51       0.0417
     19  CE2      -15.3140   16.9280   63.6110 C.ar   51  TYR51       0.0417
     20  CZ       -15.7930   16.4040   62.3910 C.ar   51  TYR51       0.1957
     21  OH       -15.0020   15.5380   61.6610 O.3    51  TYR51      -0.2866
     22  N        -23.4210   19.5960   64.7270 N.3    54  LEU54      -0.1245
     23  CA       -23.6180   18.2770   65.3080 C.3    54  LEU54       0.1561
     24  C        -23.6420   18.3040   66.8300 C.2    54  LEU54       0.2260
     25  O        -23.7130   17.2300   67.4570 O.2    54  LEU54      -0.2867
     26  CB       -22.5130   17.2950   64.8170 C.3    54  LEU54       0.0270
     27  CG       -22.3500   17.1770   63.2870 C.3    54  LEU54       0.0019
     28  CD1      -21.2630   16.1910   62.9470 C.3    54  LEU54       0.0001
     29  CD2      -23.6730   16.7610   62.6080 C.3    54  LEU54       0.0001
     30  N        -25.9630   16.0300   68.9380 N.3    57  ARG57      -0.1245
     31  CA       -25.9900   14.6280   68.5730 C.3    57  ARG57       0.1563
     32  C        -25.2480   13.8070   69.6080 C.2    57  ARG57       0.2260
     33  O        -24.2720   14.2450   70.2030 O.2    57  ARG57      -0.2867
     34  CB       -25.3490   14.4620   67.2000 C.3    57  ARG57       0.0307
     35  CG       -26.0100   15.2520   66.0670 C.3    57  ARG57       0.0489
     36  CD       -27.4970   14.8310   65.7770 C.3    57  ARG57       0.2205
     37  NE       -27.6140   13.5550   65.0970 N.pl3  57  ARG57      -0.0865
     38  CZ       -27.3060   13.3220   63.8150 C.cat  57  ARG57       0.5346
     39  NH1      -26.8310   14.2840   63.0120 N.pl3  57  ARG57       0.1354
     40  NH2      -27.4710   12.0830   63.3290 N.pl3  57  ARG57       0.1354
     41  N        -23.2650   11.3990   69.5520 N.3    59  PHE59      -0.1241
     42  CA       -21.8850   11.0510   69.2360 C.3    59  PHE59       0.1605
     43  C        -20.9090   12.2330   69.2720 C.2    59  PHE59       0.2264
     44  O        -19.7170   12.0220   69.0900 O.2    59  PHE59      -0.2867
     45  CB       -21.8150   10.3870   67.8700 C.3    59  PHE59       0.0534
     46  CG       -22.3510   11.2260   66.7420 C.ar   59  PHE59      -0.0203
     47  CD1      -21.5910   12.2610   66.1890 C.ar   59  PHE59      -0.0042
     48  CD2      -23.6150   11.0020   66.2230 C.ar   59  PHE59      -0.0042
     49  CE1      -22.0680   13.0010   65.1480 C.ar   59  PHE59      -0.0003
     50  CE2      -24.0770   11.7610   65.1760 C.ar   59  PHE59      -0.0003
     51  CZ       -23.3100   12.7760   64.6740 C.ar   59  PHE59      -0.0000
     52  N        -17.7300   12.3300   71.8090 N.3    62  GLY62      -0.1210
     53  CA       -16.7480   11.3070   71.4090 C.3    62  GLY62       0.1956
     54  C        -16.0760   11.6370   70.0780 C.2    62  GLY62       0.2611
     55  O        -14.9000   11.3720   69.9130 O.2    62  GLY62      -0.2717
     56  N        -16.8290   12.2690   69.1850 N.am   63  LEU63      -0.1979
     57  CA       -16.2580   12.7230   67.8950 C.3    63  LEU63       0.1596
     58  C        -15.1680   13.7740   68.1170 C.2    63  LEU63       0.2287
     59  O        -14.0680   13.6810   67.5640 O.2    63  LEU63      -0.2864
     60  CB       -17.3770   13.2310   66.9830 C.3    63  LEU63       0.0297
     61  CG       -16.9680   13.9480   65.6810 C.3    63  LEU63       0.0022
     62  CD1      -16.1140   13.0840   64.7650 C.3    63  LEU63       0.0001
     63  CD2      -18.2220   14.4450   64.9990 C.3    63  LEU63       0.0001
     64  N        -12.0730   12.0830   69.8230 N.3    66  TYR66      -0.1241
     65  CA       -11.2910   11.3310   68.8340 C.3    66  TYR66       0.1605
     66  C        -10.5640   12.2000   67.8330 C.2    66  TYR66       0.2264
     67  O         -9.4180   11.9200   67.4960 O.2    66  TYR66      -0.2867
     68  CB       -12.1090   10.2880   68.1110 C.3    66  TYR66       0.0534
     69  CG       -11.9860   10.0690   66.5580 C.ar   66  TYR66      -0.0201
     70  CD1      -10.9460    9.3440   65.9670 C.ar   66  TYR66      -0.0009
     71  CD2      -13.0040   10.4780   65.7450 C.ar   66  TYR66      -0.0009
     72  CE1      -10.9160    9.1310   64.6240 C.ar   66  TYR66       0.0417
     73  CE2      -13.0110   10.2440   64.3930 C.ar   66  TYR66       0.0417
     74  CZ       -11.9430    9.5650   63.8110 C.ar   66  TYR66       0.1957
     75  OH       -12.0000    9.2020   62.4810 O.3    66  TYR66      -0.2866
     76  N        -17.1960   14.0550   47.7730 N.3    87  ARG87      -0.1245
     77  CA       -17.9670   13.1680   48.6300 C.3    87  ARG87       0.1563
     78  C        -18.1960   11.8090   48.0030 C.2    87  ARG87       0.2260
     79  O        -18.1300   10.8300   48.6910 O.2    87  ARG87      -0.2867
     80  CB       -19.2880   13.8000   48.9460 C.3    87  ARG87       0.0307
     81  CG       -19.2970   15.0350   49.8420 C.3    87  ARG87       0.0489
     82  CD       -20.5570   15.0080   50.8050 C.3    87  ARG87       0.2205
     83  NE       -20.0410   15.1260   52.1540 N.pl3  87  ARG87      -0.0865
     84  CZ       -20.6810   14.8210   53.2820 C.cat  87  ARG87       0.5346
     85  NH1      -21.9180   14.3090   53.3120 N.pl3  87  ARG87       0.1354
     86  NH2      -20.0430   15.0100   54.4100 N.pl3  87  ARG87       0.1354
     87  N        -20.6290    8.3720   54.4670 N.3    93  THR93      -0.1218
     88  CA       -20.0400    8.6320   55.7590 C.3    93  THR93       0.1862
     89  C        -19.9750    7.3630   56.6300 C.2    93  THR93       0.2287
     90  O        -18.9640    7.1560   57.3140 O.2    93  THR93      -0.2866
     91  CB       -20.7330    9.8040   56.5020 C.3    93  THR93       0.1770
     92  OG1      -20.7100   10.9660   55.6620 O.3    93  THR93      -0.2211
     93  CG2      -19.9420   10.0920   57.7320 C.3    93  THR93       0.0375
     94  N        -18.1990    3.9200   61.4360 N.3   111  VAL111     -0.1231
     95  CA       -18.4280    5.3510   61.2980 C.3   111  VAL111      0.1692
     96  C        -17.5870    6.1960   62.2310 C.2   111  VAL111      0.2592
     97  O        -17.1350    7.2640   61.8600 O.2   111  VAL111     -0.2718
     98  CB       -19.9190    5.7240   61.3960 C.3   111  VAL111      0.0266
     99  CG1      -20.4220    5.4690   62.7810 C.3   111  VAL111      0.0020
    100  CG2      -20.1200    7.1860   60.9090 C.3   111  VAL111      0.0020
    101  N        -17.3480    5.7370   63.4420 N.am  112  GLY112     -0.1957
    102  CA       -16.5380    6.4950   64.3890 C.3   112  GLY112      0.1869
    103  C        -15.0470    6.4830   64.1180 C.2   112  GLY112      0.2309
    104  O        -14.2770    7.1980   64.7610 O.2   112  GLY112     -0.2863
    105  N        -13.7520    6.6240   60.5180 N.3   114  ASN114     -0.1240
    106  CA       -14.0350    6.6520   59.1150 C.3   114  ASN114      0.1653
    107  C        -13.0690    7.5250   58.2950 C.2   114  ASN114      0.2266
    108  O        -13.4440    8.0050   57.2000 O.2   114  ASN114     -0.2867
    109  CB       -15.5160    7.0310   58.8190 C.3   114  ASN114      0.1155
    110  CG       -15.8220    8.4800   59.0680 C.2   114  ASN114      0.2627
    111  OD1      -15.0250    9.1930   59.7200 O.2   114  ASN114     -0.2716
    112  ND2      -16.9510    8.9410   58.5600 N.am  114  ASN114     -0.0877
@<TRIPOS>BOND
     1    76    77    1
     2    78    77    1
     3    78    79    2
     4    77    80    1
     5    80    81    1
     6    81    82    1
     7    82    83    1
     8    83    84    2
     9    84    85    1
    10    84    86    1
    11    87    88    1
    12    92    91    1
    13    88    91    1
    14    88    89    1
    15    91    93    1
    16    89    90    2
    17   108   107    2
    18   107   106    1
    19   112   110   am
    20   109   110    1
    21   109   106    1
    22     1     2    1
    23   110   111    2
    24   106   105    1
    25     6     7    1
    26     6     5    1
    27     8     7    1
    28     8     9    1
    29     4     3    2
    30     2     5    1
    31     2     3    1
    32   100    98    1
    33    95    98    1
    34    95    94    1
    35    95    96    1
    36    98    99    1
    37    21    20    1
    38    97    96    2
    39    18    20   ar
    40    18    16   ar
    41    96   101   am
    42    20    19   ar
    43    75    74    1
    44    29    27    1
    45    16    15   ar
    46    28    27    1
    47    39    38    1
    48    27    26    1
    49    40    38    1
    50   101   102    1
    51    19    17   ar
    52    74    73   ar
    53    74    72   ar
    54    38    37    2
    55    15    17   ar
    56    15    14    1
    57    10    11    1
    58    11    14    1
    59    11    12    1
    60   103   102    1
    61   103   104    2
    62    73    71   ar
    63    72    70   ar
    64    51    49   ar
    65    51    50   ar
    66    22    23    1
    67    62    61    1
    68    12    13    2
    69    26    23    1
    70    63    61    1
    71    37    36    1
    72    49    47   ar
    73    50    48   ar
    74    23    24    1
    75    61    60    1
    76    71    69   ar
    77    36    35    1
    78    70    69   ar
    79    35    34    1
    80    47    46   ar
    81    48    46   ar
    82    69    68    1
    83    46    45    1
    84    24    25    2
    85    60    57    1
    86    34    31    1
    87    67    66    2
    88    59    58    2
    89    66    65    1
    90    45    42    1
    91    57    58    1
    92    57    56    1
    93    68    65    1
    94    31    30    1
    95    31    32    1
    96    65    64    1
    97    44    43    2
    98    56    54   am
    99    42    43    1
   100    42    41    1
   101    32    33    2
   102    55    54    2
   103    54    53    1
   104    53    52    1
