@<TRIPOS>MOLECULE
tmp/3bbbE00.pdb
 96 90 0 0 0
SMALL
GASTEIGER

@<TRIPOS>ATOM
      1  N          9.5640   19.4810   45.4480 N.3     8  LYS8       -0.1245
      2  CA         9.8780   20.6560   44.6830 C.3     8  LYS8        0.1561
      3  C          8.7290   20.9560   43.7170 C.2     8  LYS8        0.2260
      4  O          7.8220   20.1450   43.5490 O.2     8  LYS8       -0.2867
      5  CB        11.1900   20.4360   43.9440 C.3     8  LYS8        0.0271
      6  CG        12.3840   20.2200   44.8710 C.3     8  LYS8        0.0035
      7  CD        13.7190   20.1870   44.0940 C.3     8  LYS8        0.0206
      8  CE        14.9100   20.0710   44.9780 C.3     8  LYS8        0.1093
      9  NZ        16.2190   19.9060   44.2760 N.3     8  LYS8       -0.1314
     10  N         18.8930   28.6330   50.5650 N.3    48  TYR48      -0.1241
     11  CA        20.0850   28.4790   49.7260 C.3    48  TYR48       0.1605
     12  C         21.2140   29.5250   49.9300 C.2    48  TYR48       0.2264
     13  O         22.0130   29.7610   49.0030 O.2    48  TYR48      -0.2867
     14  CB        19.7240   28.5220   48.2520 C.3    48  TYR48       0.0534
     15  CG        18.8120   27.3530   47.7820 C.ar   48  TYR48      -0.0201
     16  CD1       19.2520   26.0180   47.7730 C.ar   48  TYR48      -0.0009
     17  CD2       17.5730   27.6180   47.2890 C.ar   48  TYR48      -0.0009
     18  CE1       18.4600   24.9980   47.3070 C.ar   48  TYR48       0.0417
     19  CE2       16.7450   26.5940   46.8170 C.ar   48  TYR48       0.0417
     20  CZ        17.2060   25.2980   46.8310 C.ar   48  TYR48       0.1957
     21  OH        16.3740   24.2280   46.3860 O.3    48  TYR48      -0.2866
     22  N         24.8110   29.5140   48.5960 N.3    51  LEU51      -0.1245
     23  CA        24.9760   29.5810   47.1550 C.3    51  LEU51       0.1561
     24  C         24.7160   30.9930   46.6310 C.2    51  LEU51       0.2260
     25  O         24.6160   31.2140   45.4090 O.2    51  LEU51      -0.2867
     26  CB        23.9780   28.5890   46.5260 C.3    51  LEU51       0.0270
     27  CG        24.0150   27.1380   47.0520 C.3    51  LEU51       0.0019
     28  CD1       22.9420   26.1290   46.3330 C.3    51  LEU51       0.0001
     29  CD2       25.4370   26.5690   46.9220 C.3    51  LEU51       0.0001
     30  N         24.4290   30.6480   39.2090 N.3    56  PHE56      -0.1241
     31  CA        23.1560   29.9040   39.0280 C.3    56  PHE56       0.1605
     32  C         22.0860   30.2010   40.0920 C.2    56  PHE56       0.2264
     33  O         20.9330   29.7220   39.9990 O.2    56  PHE56      -0.2867
     34  CB        23.4190   28.3850   38.9520 C.3    56  PHE56       0.0534
     35  CG        23.9810   27.8120   40.1850 C.ar   56  PHE56      -0.0203
     36  CD1       23.1630   27.5200   41.2730 C.ar   56  PHE56      -0.0042
     37  CD2       25.3370   27.5350   40.2850 C.ar   56  PHE56      -0.0042
     38  CE1       23.6830   26.9740   42.4280 C.ar   56  PHE56      -0.0003
     39  CE2       25.8560   26.9930   41.4560 C.ar   56  PHE56      -0.0003
     40  CZ        25.0230   26.7320   42.5270 C.ar   56  PHE56      -0.0000
     41  N         17.9850   29.4550   40.2280 N.3    60  LEU60      -0.1245
     42  CA        17.5560   28.4270   41.1960 C.3    60  LEU60       0.1561
     43  C         16.4220   28.9270   42.0730 C.2    60  LEU60       0.2260
     44  O         15.4270   28.2340   42.3000 O.2    60  LEU60      -0.2867
     45  CB        18.7180   28.0380   42.0680 C.3    60  LEU60       0.0270
     46  CG        18.4220   27.1430   43.2670 C.3    60  LEU60       0.0019
     47  CD1       17.6510   25.8270   42.8440 C.3    60  LEU60       0.0001
     48  CD2       19.7020   26.8990   44.0970 C.3    60  LEU60       0.0001
     49  N         13.2160   29.1930   39.9390 N.3    63  TYR63      -0.1241
     50  CA        12.6050   27.7860   39.7840 C.3    63  TYR63       0.1605
     51  C         11.9180   27.3010   41.0270 C.2    63  TYR63       0.2264
     52  O         10.8590   26.6460   40.9920 O.2    63  TYR63      -0.2867
     53  CB        13.6660   26.6830   39.4250 C.3    63  TYR63       0.0534
     54  CG        13.4620   25.1400   39.8300 C.ar   63  TYR63      -0.0201
     55  CD1       12.3790   24.3390   39.3580 C.ar   63  TYR63      -0.0009
     56  CD2       14.4110   24.4630   40.5990 C.ar   63  TYR63      -0.0009
     57  CE1       12.2520   22.9380   39.7220 C.ar   63  TYR63       0.0417
     58  CE2       14.2980   23.0680   40.9610 C.ar   63  TYR63       0.0417
     59  CZ        13.2210   22.2900   40.5090 C.ar   63  TYR63       0.1957
     60  OH        13.1380   20.8880   40.8600 O.3    63  TYR63      -0.2866
     61  N         21.6600   12.7990   43.4950 N.3    90  THR90      -0.1218
     62  CA        21.0880   14.0830   43.2460 C.3    90  THR90       0.1862
     63  C         20.8690   14.2480   41.7230 C.2    90  THR90       0.2287
     64  O         19.8690   14.8590   41.3430 O.2    90  THR90      -0.2866
     65  CB        21.7930   15.2030   44.0790 C.3    90  THR90       0.1770
     66  OG1       21.8130   14.8370   45.4880 O.3    90  THR90      -0.2211
     67  CG2       21.0750   16.4910   43.9340 C.3    90  THR90       0.0375
     68  N         18.7780   16.7180   36.2600 N.3   108  VAL108     -0.1231
     69  CA        19.1700   17.2340   37.5870 C.3   108  VAL108      0.1692
     70  C         18.4830   18.5110   38.0160 C.2   108  VAL108      0.2592
     71  O         18.1720   18.6520   39.2020 O.2   108  VAL108     -0.2718
     72  CB        20.6930   17.3820   37.7210 C.3   108  VAL108      0.0266
     73  CG1       21.2230   18.3820   36.6830 C.3   108  VAL108      0.0020
     74  CG2       21.0610   17.7920   39.1470 C.3   108  VAL108      0.0020
     75  N         18.1910   19.4110   37.0710 N.am  109  GLY109     -0.1957
     76  CA        17.4890   20.6320   37.3890 C.3   109  GLY109      0.1869
     77  C         15.9970   20.5190   37.6240 C.2   109  GLY109      0.2309
     78  O         15.3660   21.4960   37.9980 O.2   109  GLY109     -0.2863
     79  N         14.5200   17.6450   39.6470 N.3   111  ASN111     -0.1240
     80  CA        14.7630   16.4500   40.3800 C.3   111  ASN111      0.1653
     81  C         13.8430   16.2040   41.5720 C.2   111  ASN111      0.2266
     82  O         14.1870   15.4510   42.4530 O.2   111  ASN111     -0.2867
     83  CB        16.2420   16.3210   40.7660 C.3   111  ASN111      0.1155
     84  CG        16.6590   17.2320   41.8130 C.2   111  ASN111      0.2627
     85  OD1       15.9390   18.1320   42.1900 O.2   111  ASN111     -0.2716
     86  ND2       17.8460   16.9760   42.3170 N.am  111  ASN111     -0.0877
     87  N         13.8760   17.3260   47.6530 N.3   114  HIS114     -0.1241
     88  CA        15.0550   17.5140   48.4620 C.3   114  HIS114      0.1621
     89  C         14.9320   16.8060   49.7870 C.2   114  HIS114      0.2264
     90  O         13.8410   16.8110   50.3590 O.2   114  HIS114     -0.2867
     91  CB        15.1290   19.0250   48.7810 C.3   114  HIS114      0.0745
     92  CG        16.0380   19.3660   49.9290 C.ar  114  HIS114      0.0817
     93  ND1       17.4190   19.3050   49.8410 N.ar  114  HIS114     -0.2268
     94  CD2       15.7570   19.7080   51.2100 C.ar  114  HIS114      0.1154
     95  CE1       17.9430   19.6240   51.0240 C.ar  114  HIS114      0.1986
     96  NE2       16.9570   19.8890   51.8660 N.ar  114  HIS114     -0.2212
@<TRIPOS>BOND
     1    68    69    1
     2    73    72    1
     3    75    76    1
     4    75    70   am
     5    76    77    1
     6    69    72    1
     7    69    70    1
     8    77    78    2
     9    72    74    1
    10    70    71    2
    11    34    31    1
    12    34    35    1
    13    31    30    1
    14    31    32    1
    15    55    57   ar
    16    55    54   ar
    17    53    50    1
    18    53    54    1
    19    79    80    1
    20    57    59   ar
    21    50    49    1
    22    50    51    1
    23    54    56   ar
    24    33    32    2
    25    35    37   ar
    26    35    36   ar
    27    41    42    1
    28    37    39   ar
    29    80    83    1
    30    80    81    1
    31    59    60    1
    32    59    58   ar
    33    56    58   ar
    34    83    84    1
    35    52    51    2
    36    42    45    1
    37    42    43    1
    38    36    38   ar
    39    64    63    2
    40    39    40   ar
    41    81    82    2
    42    63    62    1
    43    84    85    2
    44    84    86   am
    45    45    46    1
    46    43    44    2
    47    38    40   ar
    48    47    46    1
    49    62    61    1
    50    62    65    1
    51    46    48    1
    52     4     3    2
    53     3     2    1
    54    67    65    1
    55     5     2    1
    56     5     6    1
    57    65    66    1
    58     7     6    1
    59     7     8    1
    60     9     8    1
    61     2     1    1
    62    25    24    2
    63    28    27    1
    64    21    20    1
    65    26    27    1
    66    26    23    1
    67    24    23    1
    68    19    20   ar
    69    19    17   ar
    70    20    18   ar
    71    29    27    1
    72    23    22    1
    73    17    15   ar
    74    18    16   ar
    75    87    88    1
    76    16    15   ar
    77    15    14    1
    78    14    11    1
    79    88    91    1
    80    88    89    1
    81    91    92    1
    82    13    12    2
    83    11    12    1
    84    11    10    1
    85    89    90    2
    86    93    92   ar
    87    93    95   ar
    88    92    94   ar
    89    95    96   ar
    90    94    96   ar
