@<TRIPOS>MOLECULE
tmp/3bbbE01.pdb
 106 98 0 0 0
SMALL
GASTEIGER

@<TRIPOS>ATOM
      1  N          9.5640   19.4810   45.4480 N.3     8  LYS8       -0.1245
      2  CA         9.8780   20.6560   44.6830 C.3     8  LYS8        0.1561
      3  C          8.7290   20.9560   43.7170 C.2     8  LYS8        0.2260
      4  O          7.8220   20.1450   43.5490 O.2     8  LYS8       -0.2867
      5  CB        11.1900   20.4360   43.9440 C.3     8  LYS8        0.0271
      6  CG        12.3840   20.2200   44.8710 C.3     8  LYS8        0.0035
      7  CD        13.7190   20.1870   44.0940 C.3     8  LYS8        0.0206
      8  CE        14.9100   20.0710   44.9780 C.3     8  LYS8        0.1093
      9  NZ        16.2190   19.9060   44.2760 N.3     8  LYS8       -0.1314
     10  N         18.8930   28.6330   50.5650 N.3    48  TYR48      -0.1241
     11  CA        20.0850   28.4790   49.7260 C.3    48  TYR48       0.1605
     12  C         21.2140   29.5250   49.9300 C.2    48  TYR48       0.2264
     13  O         22.0130   29.7610   49.0030 O.2    48  TYR48      -0.2867
     14  CB        19.7240   28.5220   48.2520 C.3    48  TYR48       0.0534
     15  CG        18.8120   27.3530   47.7820 C.ar   48  TYR48      -0.0201
     16  CD1       19.2520   26.0180   47.7730 C.ar   48  TYR48      -0.0009
     17  CD2       17.5730   27.6180   47.2890 C.ar   48  TYR48      -0.0009
     18  CE1       18.4600   24.9980   47.3070 C.ar   48  TYR48       0.0417
     19  CE2       16.7450   26.5940   46.8170 C.ar   48  TYR48       0.0417
     20  CZ        17.2060   25.2980   46.8310 C.ar   48  TYR48       0.1957
     21  OH        16.3740   24.2280   46.3860 O.3    48  TYR48      -0.2866
     22  N         24.8110   29.5140   48.5960 N.3    51  LEU51      -0.1245
     23  CA        24.9760   29.5810   47.1550 C.3    51  LEU51       0.1561
     24  C         24.7160   30.9930   46.6310 C.2    51  LEU51       0.2260
     25  O         24.6160   31.2140   45.4090 O.2    51  LEU51      -0.2867
     26  CB        23.9780   28.5890   46.5260 C.3    51  LEU51       0.0270
     27  CG        24.0150   27.1380   47.0520 C.3    51  LEU51       0.0019
     28  CD1       22.9420   26.1290   46.3330 C.3    51  LEU51       0.0001
     29  CD2       25.4370   26.5690   46.9220 C.3    51  LEU51       0.0001
     30  N         26.7870   32.5190   43.7750 N.3    54  ARG54      -0.1245
     31  CA        27.0490   31.7100   42.5950 C.3    54  ARG54       0.1563
     32  C         26.1500   32.1740   41.4300 C.2    54  ARG54       0.2260
     33  O         25.0350   32.7210   41.6330 O.2    54  ARG54      -0.2867
     34  CB        26.9170   30.2090   42.9200 C.3    54  ARG54       0.0307
     35  CG        27.5660   29.7770   44.2420 C.3    54  ARG54       0.0489
     36  CD        29.1180   29.4860   44.1780 C.3    54  ARG54       0.2205
     37  NE        29.4320   28.2940   43.3860 N.pl3  54  ARG54      -0.0865
     38  CZ        29.2680   27.0250   43.7740 C.cat  54  ARG54       0.5346
     39  NH1       28.8070   26.7110   44.9940 N.pl3  54  ARG54       0.1354
     40  NH2       29.5760   26.0470   42.9270 N.pl3  54  ARG54       0.1354
     41  N         24.4290   30.6480   39.2090 N.3    56  PHE56      -0.1241
     42  CA        23.1560   29.9040   39.0280 C.3    56  PHE56       0.1605
     43  C         22.0860   30.2010   40.0920 C.2    56  PHE56       0.2264
     44  O         20.9330   29.7220   39.9990 O.2    56  PHE56      -0.2867
     45  CB        23.4190   28.3850   38.9520 C.3    56  PHE56       0.0534
     46  CG        23.9810   27.8120   40.1850 C.ar   56  PHE56      -0.0203
     47  CD1       23.1630   27.5200   41.2730 C.ar   56  PHE56      -0.0042
     48  CD2       25.3370   27.5350   40.2850 C.ar   56  PHE56      -0.0042
     49  CE1       23.6830   26.9740   42.4280 C.ar   56  PHE56      -0.0003
     50  CE2       25.8560   26.9930   41.4560 C.ar   56  PHE56      -0.0003
     51  CZ        25.0230   26.7320   42.5270 C.ar   56  PHE56      -0.0000
     52  N         17.9850   29.4550   40.2280 N.3    60  LEU60      -0.1245
     53  CA        17.5560   28.4270   41.1960 C.3    60  LEU60       0.1561
     54  C         16.4220   28.9270   42.0730 C.2    60  LEU60       0.2260
     55  O         15.4270   28.2340   42.3000 O.2    60  LEU60      -0.2867
     56  CB        18.7180   28.0380   42.0680 C.3    60  LEU60       0.0270
     57  CG        18.4220   27.1430   43.2670 C.3    60  LEU60       0.0019
     58  CD1       17.6510   25.8270   42.8440 C.3    60  LEU60       0.0001
     59  CD2       19.7020   26.8990   44.0970 C.3    60  LEU60       0.0001
     60  N         17.7590   10.1090   52.2260 N.3    84  ARG84      -0.1245
     61  CA        18.5670   10.4090   51.0370 C.3    84  ARG84       0.1563
     62  C         18.6830    9.1310   50.1580 C.2    84  ARG84       0.2260
     63  O         18.5540    9.2150   48.9570 O.2    84  ARG84      -0.2867
     64  CB        19.9450   10.9470   51.4430 C.3    84  ARG84       0.0307
     65  CG        19.9120   12.3440   52.0570 C.3    84  ARG84       0.0489
     66  CD        19.8360   13.4510   51.0830 C.3    84  ARG84       0.2205
     67  NE        21.1620   13.6730   50.5650 N.pl3  84  ARG84      -0.0865
     68  CZ        21.6390   14.8280   50.0990 C.cat  84  ARG84       0.5346
     69  NH1       20.9180   15.9420   50.0590 N.pl3  84  ARG84       0.1354
     70  NH2       22.8830   14.8510   49.6650 N.pl3  84  ARG84       0.1354
     71  N         21.6600   12.7990   43.4950 N.3    90  THR90      -0.1218
     72  CA        21.0880   14.0830   43.2460 C.3    90  THR90       0.1862
     73  C         20.8690   14.2480   41.7230 C.2    90  THR90       0.2287
     74  O         19.8690   14.8590   41.3430 O.2    90  THR90      -0.2866
     75  CB        21.7930   15.2030   44.0790 C.3    90  THR90       0.1770
     76  OG1       21.8130   14.8370   45.4880 O.3    90  THR90      -0.2211
     77  CG2       21.0750   16.4910   43.9340 C.3    90  THR90       0.0375
     78  N         13.7750    9.5270   42.7250 N.3   101  ARG101     -0.1245
     79  CA        14.3030   10.1490   41.5190 C.3   101  ARG101      0.1563
     80  C         14.4940    9.1370   40.4210 C.2   101  ARG101      0.2260
     81  O         14.2980    9.4530   39.2480 O.2   101  ARG101     -0.2867
     82  CB        15.6040   10.8930   41.8210 C.3   101  ARG101      0.0307
     83  CG        15.3480   12.1630   42.6670 C.3   101  ARG101      0.0489
     84  CD        16.6170   12.8780   42.9130 C.3   101  ARG101      0.2205
     85  NE        16.4950   14.0730   43.7530 N.pl3 101  ARG101     -0.0865
     86  CZ        17.2180   14.2670   44.8400 C.cat 101  ARG101      0.5346
     87  NH1       17.9840   13.2520   45.2810 N.pl3 101  ARG101      0.1354
     88  NH2       17.1260   15.4010   45.5030 N.pl3 101  ARG101      0.1354
     89  N         14.5200   17.6450   39.6470 N.3   111  ASN111     -0.1240
     90  CA        14.7630   16.4500   40.3800 C.3   111  ASN111      0.1653
     91  C         13.8430   16.2040   41.5720 C.2   111  ASN111      0.2266
     92  O         14.1870   15.4510   42.4530 O.2   111  ASN111     -0.2867
     93  CB        16.2420   16.3210   40.7660 C.3   111  ASN111      0.1155
     94  CG        16.6590   17.2320   41.8130 C.2   111  ASN111      0.2627
     95  OD1       15.9390   18.1320   42.1900 O.2   111  ASN111     -0.2716
     96  ND2       17.8460   16.9760   42.3170 N.am  111  ASN111     -0.0877
     97  N         13.8760   17.3260   47.6530 N.3   114  HIS114     -0.1241
     98  CA        15.0550   17.5140   48.4620 C.3   114  HIS114      0.1621
     99  C         14.9320   16.8060   49.7870 C.2   114  HIS114      0.2264
    100  O         13.8410   16.8110   50.3590 O.2   114  HIS114     -0.2867
    101  CB        15.1290   19.0250   48.7810 C.3   114  HIS114      0.0745
    102  CG        16.0380   19.3660   49.9290 C.ar  114  HIS114      0.0817
    103  ND1       17.4190   19.3050   49.8410 N.ar  114  HIS114     -0.2268
    104  CD2       15.7570   19.7080   51.2100 C.ar  114  HIS114      0.1154
    105  CE1       17.9430   19.6240   51.0240 C.ar  114  HIS114      0.1986
    106  NE2       16.9570   19.8890   51.8660 N.ar  114  HIS114     -0.2212
@<TRIPOS>BOND
     1    45    42    1
     2    45    46    1
     3    42    41    1
     4    42    43    1
     5    81    80    2
     6    89    90    1
     7    44    43    2
     8    46    48   ar
     9    46    47   ar
    10    52    53    1
    11    48    50   ar
    12    90    93    1
    13    90    91    1
    14    80    79    1
    15    93    94    1
    16    53    56    1
    17    53    54    1
    18    47    49   ar
    19    74    73    2
    20    32    33    2
    21    32    31    1
    22    50    51   ar
    23    79    82    1
    24    79    78    1
    25    91    92    2
    26    73    72    1
    27    94    95    2
    28    94    96   am
    29    82    83    1
    30    56    57    1
    31    54    55    2
    32    49    51   ar
    33    31    34    1
    34    31    30    1
    35    83    84    1
    36    58    57    1
    37    84    85    1
    38    34    35    1
    39    40    38    1
    40    72    71    1
    41    72    75    1
    42    57    59    1
    43    37    38    2
    44    37    36    1
    45     4     3    2
    46     3     2    1
    47    85    86    2
    48    38    39    1
    49    77    75    1
    50     5     2    1
    51     5     6    1
    52    75    76    1
    53     7     6    1
    54     7     8    1
    55    36    35    1
    56     9     8    1
    57     2     1    1
    58    86    87    1
    59    86    88    1
    60    25    24    2
    61    28    27    1
    62    21    20    1
    63    26    27    1
    64    26    23    1
    65    24    23    1
    66    19    20   ar
    67    19    17   ar
    68    20    18   ar
    69    29    27    1
    70    23    22    1
    71    17    15   ar
    72    18    16   ar
    73    97    98    1
    74    16    15   ar
    75    15    14    1
    76    14    11    1
    77    98   101    1
    78    98    99    1
    79   101   102    1
    80    63    62    2
    81    13    12    2
    82    70    68    1
    83    11    12    1
    84    11    10    1
    85    99   100    2
    86   103   102   ar
    87   103   105   ar
    88   102   104   ar
    89    69    68    1
    90    68    67    2
    91    62    61    1
    92    67    66    1
    93   105   106   ar
    94    61    64    1
    95    61    60    1
    96    66    65    1
    97   104   106   ar
    98    64    65    1
