@<TRIPOS>MOLECULE
tmp/3bbdB00.pdb
 119 115 0 0 0
SMALL
GASTEIGER

@<TRIPOS>ATOM
      1  N         28.7620   57.5920   35.2320 N.3   135  ILE135     -0.1245
      2  CA        27.6870   57.8230   34.2720 C.3   135  ILE135      0.1561
      3  C         27.8750   59.2160   33.7200 C.2   135  ILE135      0.2260
      4  O         27.8640   60.2180   34.4550 O.2   135  ILE135     -0.2867
      5  CB        26.2690   57.6260   34.8510 C.3   135  ILE135      0.0252
      6  CG1       26.0980   56.1890   35.3250 C.3   135  ILE135      0.0019
      7  CG2       25.2010   57.9250   33.7840 C.3   135  ILE135      0.0019
      8  CD1       24.6310   55.7370   35.4410 C.3   135  ILE135      0.0001
      9  N         27.0350   62.5020   31.9010 N.3   136  THR136     -0.1203
     10  CA        25.9140   63.3940   31.6290 C.3   136  THR136      0.1994
     11  C         26.3890   64.8200   31.8660 C.2   136  THR136      0.2617
     12  O         27.1900   65.0610   32.7780 O.2   136  THR136     -0.2717
     13  CB        24.6660   63.0550   32.4830 C.3   136  THR136      0.1784
     14  OG1       23.6360   64.0000   32.2000 O.3   136  THR136     -0.2211
     15  CG2       24.9800   63.0600   33.9820 C.3   136  THR136      0.0376
     16  N         25.9240   65.7520   31.0330 N.am  137  LYS137     -0.1979
     17  CA        26.2820   67.1790   31.1820 C.3   137  LYS137      0.1596
     18  C         25.7950   67.7810   32.5110 C.2   137  LYS137      0.2287
     19  O         26.3270   68.7950   32.9700 O.2   137  LYS137     -0.2864
     20  CB        25.7670   68.0170   29.9970 C.3   137  LYS137      0.0298
     21  CG        24.2540   68.1260   29.9150 C.3   137  LYS137      0.0038
     22  CD        23.8260   69.3090   29.0830 C.3   137  LYS137      0.0206
     23  CE        22.3140   69.5020   29.1750 C.3   137  LYS137      0.1093
     24  NZ        21.8130   70.3090   28.0330 N.3   137  LYS137     -0.1314
     25  N         29.6220   54.8770   31.3010 N.3   154  ILE154     -0.1231
     26  CA        28.3400   54.7900   30.6130 C.3   154  ILE154      0.1692
     27  C         28.0700   56.0970   29.8640 C.2   154  ILE154      0.2592
     28  O         28.1200   57.1880   30.4600 O.2   154  ILE154     -0.2718
     29  CB        27.1560   54.5000   31.5790 C.3   154  ILE154      0.0266
     30  CG1       27.4950   53.3630   32.5640 C.3   154  ILE154      0.0019
     31  CG2       25.8930   54.1650   30.7840 C.3   154  ILE154      0.0020
     32  CD1       26.3200   52.9640   33.4730 C.3   154  ILE154      0.0001
     33  N         27.8050   55.9740   28.5620 N.am  155  ILE155     -0.1966
     34  CA        27.4890   57.1170   27.7110 C.3   155  ILE155      0.1727
     35  C         26.1710   56.8060   27.0200 C.2   155  ILE155      0.2616
     36  O         25.9980   55.7170   26.4780 O.2   155  ILE155     -0.2715
     37  CB        28.6140   57.4090   26.6460 C.3   155  ILE155      0.0290
     38  CG1       29.9870   57.6000   27.3090 C.3   155  ILE155      0.0022
     39  CG2       28.3010   58.6550   25.7880 C.3   155  ILE155      0.0023
     40  CD1       30.8400   56.3390   27.3010 C.3   155  ILE155      0.0001
     41  N         25.2370   57.7540   27.0410 N.am  156  GLY156     -0.1955
     42  CA        23.9790   57.5990   26.3040 C.3   156  GLY156      0.1869
     43  C         24.2190   57.5200   24.8010 C.2   156  GLY156      0.2309
     44  O         24.7870   58.4360   24.2250 O.2   156  GLY156     -0.2863
     45  N         22.2410   58.0670   22.3910 N.3   158  PHE158     -0.1228
     46  CA        21.0120   58.6640   21.8910 C.3   158  PHE158      0.1721
     47  C         21.2100   60.1790   21.7350 C.2   158  PHE158      0.2437
     48  O         22.1930   60.7290   22.2610 O.2   158  PHE158     -0.2733
     49  CB        19.8240   58.3070   22.8060 C.3   158  PHE158      0.0547
     50  CG        20.0300   58.6690   24.2600 C.ar  158  PHE158     -0.0202
     51  CD1       19.9750   60.0070   24.6830 C.ar  158  PHE158     -0.0042
     52  CD2       20.2550   57.6760   25.2080 C.ar  158  PHE158     -0.0042
     53  CE1       20.1440   60.3470   26.0290 C.ar  158  PHE158     -0.0003
     54  CE2       20.4370   58.0010   26.5550 C.ar  158  PHE158     -0.0003
     55  CZ        20.3850   59.3440   26.9720 C.ar  158  PHE158     -0.0000
     56  N         20.3290   60.8460   20.9570 N.am  159  PRO159     -0.2718
     57  CA        20.5200   62.2810   20.7040 C.3   159  PRO159      0.1535
     58  C         20.0600   63.2110   21.8220 C.2   159  PRO159      0.2599
     59  O         20.7220   64.2220   22.0860 O.2   159  PRO159     -0.2715
     60  CB        19.6760   62.5330   19.4470 C.3   159  PRO159      0.0310
     61  CG        18.6210   61.4870   19.4760 C.3   159  PRO159      0.0237
     62  CD        19.1780   60.2950   20.2130 C.3   159  PRO159      0.0939
     63  N         18.9350   62.8890   22.4510 N.am  160  TYR160     -0.1960
     64  CA        18.2690   63.8330   23.3400 C.3   160  TYR160      0.1771
     65  C         17.8280   63.1430   24.6100 C.2   160  TYR160      0.2620
     66  O         17.5130   61.9560   24.5970 O.2   160  TYR160     -0.2715
     67  CB        17.0490   64.4810   22.6470 C.3   160  TYR160      0.0574
     68  CG        16.1490   65.2520   23.6010 C.ar  160  TYR160     -0.0198
     69  CD1       16.4100   66.5870   23.9120 C.ar  160  TYR160     -0.0009
     70  CD2       15.0580   64.6290   24.2260 C.ar  160  TYR160     -0.0009
     71  CE1       15.5970   67.2930   24.8120 C.ar  160  TYR160      0.0417
     72  CE2       14.2370   65.3260   25.1250 C.ar  160  TYR160      0.0417
     73  CZ        14.5150   66.6560   25.4090 C.ar  160  TYR160      0.1957
     74  OH        13.7160   67.3550   26.2950 O.3   160  TYR160     -0.2866
     75  N         17.7930   63.9010   25.7010 N.am  161  GLY161     -0.1940
     76  CA        17.2260   63.4110   26.9460 C.3   161  GLY161      0.2014
     77  C         18.3000   63.1430   27.9680 C.2   161  GLY161      0.2639
     78  O         19.4090   63.6600   27.8640 O.2   161  GLY161     -0.2714
     79  N         17.9670   62.3370   28.9630 N.am  162  LYS162     -0.1963
     80  CA        18.9320   61.9770   29.9870 C.3   162  LYS162      0.1728
     81  C         18.8190   60.4970   30.2740 C.2   162  LYS162      0.2616
     82  O         17.7190   59.9340   30.2860 O.2   162  LYS162     -0.2715
     83  CB        18.7320   62.7900   31.2760 C.3   162  LYS162      0.0311
     84  CG        19.8960   62.6300   32.2470 C.3   162  LYS162      0.0038
     85  CD        19.6060   63.1450   33.6410 C.3   162  LYS162      0.0206
     86  CE        20.8180   62.8970   34.5320 C.3   162  LYS162      0.1093
     87  NZ        20.7370   63.6200   35.8320 N.3   162  LYS162     -0.1314
     88  N         19.9690   59.8720   30.5030 N.am  163  LEU163     -0.1977
     89  CA        20.0040   58.4600   30.8220 C.3   163  LEU163      0.1596
     90  C         19.4140   58.2340   32.2060 C.2   163  LEU163      0.2287
     91  O         19.8590   58.8310   33.1850 O.2   163  LEU163     -0.2864
     92  CB        21.4330   57.9260   30.7560 C.3   163  LEU163      0.0297
     93  CG        21.4960   56.4020   30.7430 C.3   163  LEU163      0.0022
     94  CD1       21.8040   55.9340   29.3460 C.3   163  LEU163      0.0001
     95  CD2       22.5500   55.9300   31.7080 C.3   163  LEU163      0.0001
     96  N         26.4370   70.5760   26.2400 N.3   183  GLY183     -0.1210
     97  CA        26.0170   69.2670   25.7540 C.3   183  GLY183      0.1956
     98  C         26.9020   68.8690   24.5810 C.2   183  GLY183      0.2611
     99  O         27.0530   69.6360   23.6260 O.2   183  GLY183     -0.2717
    100  N         27.5290   67.6980   24.6790 N.am  184  LEU184     -0.1979
    101  CA        28.3630   67.1710   23.5970 C.3   184  LEU184      0.1596
    102  C         27.6840   65.9710   22.9630 C.2   184  LEU184      0.2287
    103  O         26.7620   65.4070   23.5440 O.2   184  LEU184     -0.2864
    104  CB        29.7520   66.7870   24.1140 C.3   184  LEU184      0.0297
    105  CG        30.6150   67.9040   24.6950 C.3   184  LEU184      0.0022
    106  CD1       31.8790   67.3310   25.3440 C.3   184  LEU184      0.0001
    107  CD2       30.9750   68.9770   23.6440 C.3   184  LEU184      0.0001
    108  N         27.5400   62.0140   21.7170 N.3   185  ALA185     -0.1245
    109  CA        28.0330   60.7910   22.3650 C.3   185  ALA185      0.1562
    110  C         29.4130   60.3850   21.8600 C.2   185  ALA185      0.2260
    111  O         30.2390   59.9370   22.6390 O.2   185  ALA185     -0.2867
    112  CB        27.0480   59.6400   22.2070 C.3   185  ALA185      0.0290
    113  N         32.1970   62.4170   23.5970 N.3   188  VAL188     -0.1245
    114  CA        32.3860   61.9460   24.9620 C.3   188  VAL188      0.1561
    115  C         33.1680   60.6200   24.9900 C.2   188  VAL188      0.2260
    116  O         34.1260   60.4760   25.7530 O.2   188  VAL188     -0.2867
    117  CB        31.0350   61.8040   25.6840 C.3   188  VAL188      0.0252
    118  CG1       31.2450   61.3140   27.1300 C.3   188  VAL188      0.0019
    119  CG2       30.2980   63.1400   25.6710 C.3   188  VAL188      0.0019
@<TRIPOS>BOND
     1    60    61    1
     2    60    57    1
     3    61    62    1
     4    62    56    1
     5    57    56    1
     6    57    58    1
     7    56    47   am
     8   108   109    1
     9    47    46    1
    10    47    48    2
    11    58    59    2
    12    58    63   am
    13   110   109    1
    14   110   111    2
    15    46    45    1
    16    46    49    1
    17   112   109    1
    18    63    64    1
    19    67    64    1
    20    67    68    1
    21    49    50    1
    22   102   103    2
    23   102   101    1
    24    64    65    1
    25   101   104    1
    26   101   100    1
    27   113   114    1
    28    68    69   ar
    29    68    70   ar
    30    99    98    2
    31   107   105    1
    32    69    71   ar
    33   104   105    1
    34    44    43    2
    35    70    72   ar
    36    50    51   ar
    37    50    52   ar
    38    98   100   am
    39    98    97    1
    40    66    65    2
    41    65    75   am
    42    51    53   ar
    43   105   106    1
    44    43    42    1
    45    71    73   ar
    46   114   115    1
    47   114   117    1
    48   115   116    2
    49    72    73   ar
    50    52    54   ar
    51    73    74    1
    52   119   117    1
    53   117   118    1
    54    75    76    1
    55    97    96    1
    56    39    37    1
    57    53    55   ar
    58    42    41    1
    59    36    35    2
    60    54    55   ar
    61    37    38    1
    62    37    34    1
    63    76    77    1
    64    35    41   am
    65    35    34    1
    66    40    38    1
    67    34    33    1
    68    78    77    2
    69    77    79   am
    70    24    23    1
    71    33    27   am
    72    79    80    1
    73    22    23    1
    74    22    21    1
    75    94    93    1
    76    27    28    2
    77    27    26    1
    78    21    20    1
    79    80    81    1
    80    80    83    1
    81    20    17    1
    82    81    82    2
    83    81    88   am
    84    88    89    1
    85    26    25    1
    86    26    29    1
    87    93    92    1
    88    93    95    1
    89    92    89    1
    90    31    29    1
    91    89    90    1
    92    16    17    1
    93    16    11   am
    94    17    18    1
    95    83    84    1
    96    29    30    1
    97    10    11    1
    98    10     9    1
    99    10    13    1
   100    11    12    2
   101    14    13    1
   102    90    91    2
   103    84    85    1
   104    13    15    1
   105    18    19    2
   106    30    32    1
   107    85    86    1
   108     3     2    1
   109     3     4    2
   110     7     5    1
   111     2     5    1
   112     2     1    1
   113    86    87    1
   114     5     6    1
   115     6     8    1
