@<TRIPOS>MOLECULE
tmp/3bbdA00.pdb
 162 158 0 0 0
SMALL
GASTEIGER

@<TRIPOS>ATOM
      1  N         53.2260   68.3000   11.2980 N.3   135  ILE135     -0.1245
      2  CA        52.7010   67.3560   10.3160 C.3   135  ILE135      0.1561
      3  C         52.5410   66.0220   11.0180 C.2   135  ILE135      0.2260
      4  O         53.5290   65.4030   11.4220 O.2   135  ILE135     -0.2867
      5  CB        53.6470   67.1430    9.1160 C.3   135  ILE135      0.0252
      6  CG1       53.6340   68.3360    8.1780 C.3   135  ILE135      0.0019
      7  CG2       53.2440   65.8910    8.3240 C.3   135  ILE135      0.0019
      8  CD1       54.5600   68.1350    6.9680 C.3   135  ILE135      0.0001
      9  N         52.1070   62.2210   11.3760 N.3   136  THR136     -0.1203
     10  CA        52.4540   60.9990   10.6580 C.3   136  THR136      0.1994
     11  C         53.0610   60.0100   11.6390 C.2   136  THR136      0.2617
     12  O         53.8610   60.3950   12.4960 O.2   136  THR136     -0.2717
     13  CB        53.4340   61.2380    9.4620 C.3   136  THR136      0.1784
     14  OG1       53.9410   59.9760    9.0130 O.3   136  THR136     -0.2211
     15  CG2       54.6120   62.1570    9.8440 C.3   136  THR136      0.0376
     16  N         52.6780   58.7430   11.5030 N.am  137  LYS137     -0.1979
     17  CA        53.2140   57.6600   12.3390 C.3   137  LYS137      0.1596
     18  C         54.7310   57.4470   12.1620 C.2   137  LYS137      0.2287
     19  O         55.3430   56.6890   12.9240 O.2   137  LYS137     -0.2864
     20  CB        52.4740   56.3430   12.0460 C.3   137  LYS137      0.0298
     21  CG        52.8930   55.6800   10.7310 C.3   137  LYS137      0.0038
     22  CD        52.2720   54.3170   10.5760 C.3   137  LYS137      0.0206
     23  CE        52.8690   53.5880    9.3830 C.3   137  LYS137      0.1093
     24  NZ        51.9590   52.4980    8.9020 N.3   137  LYS137     -0.1314
     25  N         48.5960   69.3980   10.7190 N.3   154  ILE154     -0.1231
     26  CA        48.2070   68.8640    9.4230 C.3   154  ILE154      0.1692
     27  C         48.0610   67.3570    9.5230 C.2   154  ILE154      0.2592
     28  O         48.9930   66.6710    9.9430 O.2   154  ILE154     -0.2718
     29  CB        49.2240   69.1880    8.3160 C.3   154  ILE154      0.0266
     30  CG1       49.6150   70.6700    8.3400 C.3   154  ILE154      0.0019
     31  CG2       48.6690   68.7740    6.9490 C.3   154  ILE154      0.0020
     32  CD1       50.6190   71.0430    7.2610 C.3   154  ILE154      0.0001
     33  N         46.8840   66.8590    9.1280 N.am  155  ILE155     -0.1966
     34  CA        46.5500   65.4460    9.1680 C.3   155  ILE155      0.1727
     35  C         46.1330   65.0710    7.7540 C.2   155  ILE155      0.2616
     36  O         45.3340   65.7880    7.1320 O.2   155  ILE155     -0.2715
     37  CB        45.3580   65.1600   10.1440 C.3   155  ILE155      0.0290
     38  CG1       45.6270   65.6980   11.5560 C.3   155  ILE155      0.0022
     39  CG2       45.0380   63.6540   10.2140 C.3   155  ILE155      0.0023
     40  CD1       45.0720   67.0960   11.8170 C.3   155  ILE155      0.0001
     41  N         46.6670   63.9660    7.2280 N.am  156  GLY156     -0.1955
     42  CA        46.2770   63.5000    5.8920 C.3   156  GLY156      0.1869
     43  C         44.8300   63.0220    5.8400 C.2   156  GLY156      0.2309
     44  O         44.4570   62.1280    6.5780 O.2   156  GLY156     -0.2863
     45  N         43.2190   61.0080    4.0340 N.3   158  PHE158     -0.1228
     46  CA        43.3120   59.8950    3.0980 C.3   158  PHE158      0.1721
     47  C         43.5900   58.6040    3.8710 C.2   158  PHE158      0.2437
     48  O         43.9410   58.6630    5.0550 O.2   158  PHE158     -0.2733
     49  CB        44.3570   60.1780    2.0020 C.3   158  PHE158      0.0547
     50  CG        45.7160   60.6000    2.5200 C.ar  158  PHE158     -0.0202
     51  CD1       46.5960   59.6660    3.0610 C.ar  158  PHE158     -0.0042
     52  CD2       46.1290   61.9240    2.4240 C.ar  158  PHE158     -0.0042
     53  CE1       47.8610   60.0480    3.5330 C.ar  158  PHE158     -0.0003
     54  CE2       47.3890   62.3180    2.8810 C.ar  158  PHE158     -0.0003
     55  CZ        48.2590   61.3780    3.4410 C.ar  158  PHE158     -0.0000
     56  N         43.3730   57.4340    3.2360 N.am  159  PRO159     -0.2718
     57  CA        43.5210   56.1670    3.9630 C.3   159  PRO159      0.1535
     58  C         44.9330   55.5650    3.9730 C.2   159  PRO159      0.2599
     59  O         45.2850   54.8400    4.9130 O.2   159  PRO159     -0.2715
     60  CB        42.5630   55.2300    3.2180 C.3   159  PRO159      0.0310
     61  CG        42.5230   55.7660    1.8060 C.3   159  PRO159      0.0237
     62  CD        42.9190   57.2270    1.8460 C.3   159  PRO159      0.0939
     63  N         45.7170   55.8730    2.9410 N.am  160  TYR160     -0.1960
     64  CA        46.9970   55.2330    2.6850 C.3   160  TYR160      0.1771
     65  C         47.9600   56.2660    2.1250 C.2   160  TYR160      0.2620
     66  O         47.5660   57.1160    1.3240 O.2   160  TYR160     -0.2715
     67  CB        46.8090   54.1060    1.6580 C.3   160  TYR160      0.0574
     68  CG        48.0680   53.3260    1.3090 C.ar  160  TYR160     -0.0198
     69  CD1       48.5320   52.3030    2.1450 C.ar  160  TYR160     -0.0009
     70  CD2       48.7810   53.5930    0.1290 C.ar  160  TYR160     -0.0009
     71  CE1       49.6770   51.5740    1.8300 C.ar  160  TYR160      0.0417
     72  CE2       49.9340   52.8670   -0.1980 C.ar  160  TYR160      0.0417
     73  CZ        50.3730   51.8590    0.6620 C.ar  160  TYR160      0.1957
     74  OH        51.5100   51.1270    0.3630 O.3   160  TYR160     -0.2866
     75  N         49.2240   56.1820    2.5360 N.am  161  GLY161     -0.1940
     76  CA        50.2610   57.0670    2.0120 C.3   161  GLY161      0.2014
     77  C         50.8630   57.9370    3.0910 C.2   161  GLY161      0.2639
     78  O         50.5320   57.8090    4.2700 O.2   161  GLY161     -0.2714
     79  N         51.7630   58.8210    2.6830 N.am  162  LYS162     -0.1963
     80  CA        52.3770   59.7480    3.6080 C.3   162  LYS162      0.1728
     81  C         52.2420   61.1610    3.0730 C.2   162  LYS162      0.2616
     82  O         52.3440   61.4010    1.8690 O.2   162  LYS162     -0.2715
     83  CB        53.8500   59.3950    3.8670 C.3   162  LYS162      0.0311
     84  CG        54.5470   60.3590    4.8350 C.3   162  LYS162      0.0038
     85  CD        55.9140   59.8740    5.2660 C.3   162  LYS162      0.0206
     86  CE        56.5840   60.9130    6.1520 C.3   162  LYS162      0.1093
     87  NZ        57.8800   60.4160    6.7070 N.3   162  LYS162     -0.1314
     88  N         51.9860   62.0830    3.9910 N.am  163  LEU163     -0.1977
     89  CA        51.9010   63.4990    3.6900 C.3   163  LEU163      0.1596
     90  C         53.2980   64.0360    3.3300 C.2   163  LEU163      0.2287
     91  O         54.2330   63.9370    4.1300 O.2   163  LEU163     -0.2864
     92  CB        51.3380   64.2110    4.9210 C.3   163  LEU163      0.0297
     93  CG        50.4480   65.4580    4.8720 C.3   163  LEU163      0.0022
     94  CD1       49.5720   65.5570    3.6270 C.3   163  LEU163      0.0001
     95  CD2       49.6070   65.4520    6.1400 C.3   163  LEU163      0.0001
     96  N         55.4440   64.7760   13.4510 N.3   177  ILE177     -0.1231
     97  CA        55.0520   64.3690   14.7970 C.3   177  ILE177      0.1692
     98  C         54.2010   63.0950   14.7600 C.2   177  ILE177      0.2593
     99  O         53.1470   63.0560   14.1180 O.2   177  ILE177     -0.2718
    100  CB        54.2480   65.4990   15.5130 C.3   177  ILE177      0.0266
    101  CG1       55.0980   66.7680   15.7060 C.3   177  ILE177      0.0019
    102  CG2       53.6590   65.0160   16.8420 C.3   177  ILE177      0.0020
    103  CD1       56.3920   66.5880   16.5230 C.3   177  ILE177      0.0001
    104  N         54.6650   62.0570   15.4510 N.am  178  SER178     -0.1938
    105  CA        53.8510   60.8670   15.7090 C.3   178  SER178      0.2055
    106  C         53.3140   60.9110   17.1390 C.2   178  SER178      0.2643
    107  O         54.0310   61.2930   18.0710 O.2   178  SER178     -0.2714
    108  CB        54.6760   59.5930   15.4950 C.3   178  SER178      0.2130
    109  OG        53.9310   58.4370   15.8390 O.3   178  SER178     -0.2179
    110  N         52.0560   60.5240   17.3160 N.am  179  ILE179     -0.1963
    111  CA        51.4660   60.4600   18.6570 C.3   179  ILE179      0.1727
    112  C         51.1170   59.0230   19.0880 C.2   179  ILE179      0.2616
    113  O         50.4790   58.8140   20.1180 O.2   179  ILE179     -0.2715
    114  CB        50.2480   61.4360   18.8190 C.3   179  ILE179      0.0290
    115  CG1       49.2600   61.3070   17.6500 C.3   179  ILE179      0.0022
    116  CG2       50.7300   62.8790   18.9440 C.3   179  ILE179      0.0023
    117  CD1       48.3080   60.1550   17.7660 C.3   179  ILE179      0.0001
    118  N         51.5480   58.0470   18.2860 N.am  180  TYR180     -0.1974
    119  CA        51.3490   56.6190   18.5640 C.3   180  TYR180      0.1639
    120  C         52.2180   55.7620   17.6390 C.2   180  TYR180      0.2290
    121  O         52.4420   56.1110   16.4770 O.2   180  TYR180     -0.2864
    122  CB        49.8650   56.2400   18.4130 C.3   180  TYR180      0.0560
    123  CG        49.4570   54.9500   19.0990 C.ar  180  TYR180     -0.0198
    124  CD1       49.7010   54.7460   20.4650 C.ar  180  TYR180     -0.0009
    125  CD2       48.7960   53.9420   18.3860 C.ar  180  TYR180     -0.0009
    126  CE1       49.3150   53.5510   21.0960 C.ar  180  TYR180      0.0417
    127  CE2       48.4000   52.7550   19.0010 C.ar  180  TYR180      0.0417
    128  CZ        48.6630   52.5610   20.3500 C.ar  180  TYR180      0.1957
    129  OH        48.2660   51.3820   20.9450 O.3   180  TYR180     -0.2866
    130  N         51.5880   53.1080   16.1620 N.3   182  LYS182     -0.1231
    131  CA        50.7910   52.3630   15.1920 C.3   182  LYS182      0.1693
    132  C         50.0320   53.3490   14.3040 C.2   182  LYS182      0.2593
    133  O         49.7180   54.4560   14.7440 O.2   182  LYS182     -0.2718
    134  CB        49.8130   51.4340   15.9280 C.3   182  LYS182      0.0285
    135  CG        48.9680   50.5400   15.0350 C.3   182  LYS182      0.0035
    136  CD        48.2340   49.4860   15.8400 C.3   182  LYS182      0.0206
    137  CE        47.1550   48.8200   14.9980 C.3   182  LYS182      0.1093
    138  NZ        46.6360   47.5870   15.6770 N.3   182  LYS182     -0.1314
    139  N         49.7610   52.9510   13.0610 N.am  183  GLY183     -0.1942
    140  CA        48.9200   53.7310   12.1560 C.3   183  GLY183      0.2014
    141  C         47.5150   53.8800   12.7320 C.2   183  GLY183      0.2638
    142  O         46.9100   52.9020   13.1510 O.2   183  GLY183     -0.2714
    143  N         47.0240   55.1120   12.7910 N.am  184  LEU184     -0.1977
    144  CA        45.6680   55.3980   13.2540 C.3   184  LEU184      0.1596
    145  C         44.8780   56.0260   12.1150 C.2   184  LEU184      0.2287
    146  O         45.4610   56.4820   11.1480 O.2   184  LEU184     -0.2864
    147  CB        45.6980   56.3350   14.4660 C.3   184  LEU184      0.0297
    148  CG        46.4050   55.8380   15.7290 C.3   184  LEU184      0.0022
    149  CD1       46.5360   56.9720   16.7310 C.3   184  LEU184      0.0001
    150  CD2       45.6490   54.6520   16.3440 C.3   184  LEU184      0.0001
    151  N         42.5630   58.9750   10.3540 N.3   185  ALA185     -0.1245
    152  CA        42.6000   60.4410   10.4160 C.3   185  ALA185      0.1562
    153  C         41.7060   60.9990   11.5210 C.2   185  ALA185      0.2260
    154  O         42.1000   61.9380   12.2350 O.2   185  ALA185     -0.2867
    155  CB        42.2100   61.0590    9.0510 C.3   185  ALA185      0.0290
    156  N         43.3010   60.7340   15.0230 N.3   188  VAL188     -0.1245
    157  CA        44.3680   61.7130   15.1890 C.3   188  VAL188      0.1561
    158  C         43.7610   63.0940   15.4330 C.2   188  VAL188      0.2260
    159  O         44.2000   63.8190   16.3470 O.2   188  VAL188     -0.2867
    160  CB        45.3190   61.6970   13.9710 C.3   188  VAL188      0.0252
    161  CG1       46.4080   62.7400   14.1230 C.3   188  VAL188      0.0019
    162  CG2       45.9250   60.2810   13.8040 C.3   188  VAL188      0.0019
@<TRIPOS>BOND
     1    72    70   ar
     2    72    73   ar
     3    70    68   ar
     4    74    73    1
     5    73    71   ar
     6    68    67    1
     7    68    69   ar
     8    66    65    2
     9    67    64    1
    10    61    62    1
    11    61    60    1
    12    71    69   ar
    13    62    56    1
    14    82    81    2
    15    49    50    1
    16    49    46    1
    17    76    75    1
    18    76    77    1
    19    65    75   am
    20    65    64    1
    21    52    50   ar
    22    52    54   ar
    23    50    51   ar
    24    79    77   am
    25    79    80    1
    26    64    63    1
    27    54    55   ar
    28    63    58   am
    29    51    53   ar
    30    81    80    1
    31    81    88   am
    32    77    78    2
    33    46    47    1
    34    46    45    1
    35    60    57    1
    36    56    47   am
    37    56    57    1
    38    90    89    1
    39    90    91    2
    40    55    53   ar
    41    80    83    1
    42    94    93    1
    43    89    88    1
    44    89    92    1
    45    83    84    1
    46    47    48    2
    47    57    58    1
    48    58    59    2
    49    84    85    1
    50    93    92    1
    51    93    95    1
    52    85    86    1
    53    43    42    1
    54    43    44    2
    55    42    41    1
    56    86    87    1
    57    31    29    1
    58     8     6    1
    59    36    35    2
    60    41    35   am
    61    32    30    1
    62    35    34    1
    63     6     5    1
    64    29    30    1
    65    29    26    1
    66     7     5    1
    67    24    23    1
    68    14    13    1
    69   155   152    1
    70     5     2    1
    71    33    34    1
    72    33    27   am
    73    34    37    1
    74    23    22    1
    75    26    27    1
    76    26    25    1
    77    13    15    1
    78    13    10    1
    79    27    28    2
    80    37    39    1
    81    37    38    1
    82     2     3    1
    83     2     1    1
    84   151   152    1
    85   152   153    1
    86    22    21    1
    87    10     9    1
    88    10    11    1
    89    21    20    1
    90     3     4    2
    91   146   145    2
    92    16    11   am
    93    16    17    1
    94   153   154    2
    95    38    40    1
    96    11    12    2
    97    20    17    1
    98   145   144    1
    99   140   141    1
   100   140   139    1
   101    18    17    1
   102    18    19    2
   103   141   143   am
   104   141   142    2
   105   143   144    1
   106   139   132   am
   107   144   147    1
   108    96    97    1
   109   162   160    1
   110   160   161    1
   111   160   157    1
   112    99    98    2
   113   132   133    2
   114   132   131    1
   115   147   148    1
   116    98    97    1
   117    98   104   am
   118    97   100    1
   119   137   138    1
   120   137   136    1
   121   156   157    1
   122   135   136    1
   123   135   134    1
   124   157   158    1
   125   131   134    1
   126   131   130    1
   127   158   159    2
   128   104   105    1
   129   108   105    1
   130   108   109    1
   131   100   101    1
   132   100   102    1
   133   101   103    1
   134   105   106    1
   135   148   150    1
   136   148   149    1
   137   121   120    2
   138   106   110   am
   139   106   107    2
   140   110   111    1
   141   120   119    1
   142   115   117    1
   143   115   114    1
   144   118   119    1
   145   118   112   am
   146   125   127   ar
   147   125   123   ar
   148   122   119    1
   149   122   123    1
   150   111   114    1
   151   111   112    1
   152   114   116    1
   153   127   128   ar
   154   112   113    2
   155   123   124   ar
   156   128   129    1
   157   128   126   ar
   158   124   126   ar
