@<TRIPOS>MOLECULE
tmp/3bbfA00.pdb
 164 155 0 0 0
SMALL
GASTEIGER

@<TRIPOS>ATOM
      1  N         21.4520   30.4050   42.5680 N.3    11  LYS11      -0.1245
      2  CA        21.5950   29.3240   41.5900 C.3    11  LYS11       0.1561
      3  C         22.2220   28.0730   42.2440 C.2    11  LYS11       0.2260
      4  O         22.7310   28.1490   43.3720 O.2    11  LYS11      -0.2867
      5  CB        22.3710   29.8060   40.3690 C.3    11  LYS11       0.0271
      6  CG        21.6210   30.8710   39.5310 C.3    11  LYS11       0.0035
      7  CD        22.4860   31.4830   38.4350 C.3    11  LYS11       0.0206
      8  CE        21.6550   32.3870   37.5830 C.3    11  LYS11       0.1093
      9  NZ        22.4370   33.0470   36.4530 N.3    11  LYS11      -0.1314
     10  N         13.7580   31.6140   31.4370 N.3    51  TYR51      -0.1241
     11  CA        14.7360   32.1140   30.4880 C.3    51  TYR51       0.1605
     12  C         14.2330   32.1360   29.0460 C.2    51  TYR51       0.2264
     13  O         15.0430   32.0750   28.1000 O.2    51  TYR51      -0.2867
     14  CB        16.0240   31.2690   30.6040 C.3    51  TYR51       0.0534
     15  CG        16.8700   31.5840   31.8350 C.ar   51  TYR51      -0.0201
     16  CD1       17.3110   32.8920   32.1030 C.ar   51  TYR51      -0.0009
     17  CD2       17.2550   30.5710   32.7040 C.ar   51  TYR51      -0.0009
     18  CE1       18.1050   33.1890   33.2300 C.ar   51  TYR51       0.0417
     19  CE2       18.0530   30.8390   33.8160 C.ar   51  TYR51       0.0417
     20  CZ        18.4760   32.1550   34.0790 C.ar   51  TYR51       0.1957
     21  OH        19.2660   32.4000   35.1940 O.3    51  TYR51      -0.2866
     22  N         13.3650   34.2890   26.9170 N.3    53  ASP53      -0.1225
     23  CA        13.9860   35.2350   25.9860 C.3    53  ASP53       0.1805
     24  C         15.3640   34.7740   25.4240 C.2    53  ASP53       0.2597
     25  O         15.8460   35.3330   24.4400 O.2    53  ASP53      -0.2718
     26  CB        14.1230   36.6090   26.6410 C.3    53  ASP53       0.1424
     27  CG        15.1790   36.6410   27.7180 C.2    53  ASP53       0.3668
     28  OD1       15.0160   35.9770   28.7870 O.co2  53  ASP53      -0.2456
     29  OD2       16.1890   37.3430   27.4750 O.co2  53  ASP53      -0.2456
     30  N         15.9840   33.7920   26.0710 N.am   54  LEU54      -0.1979
     31  CA        17.2950   33.3130   25.6780 C.3    54  LEU54       0.1596
     32  C         17.1960   31.9950   24.9140 C.2    54  LEU54       0.2287
     33  O         18.2130   31.3930   24.6050 O.2    54  LEU54      -0.2864
     34  CB        18.1770   33.1430   26.9130 C.3    54  LEU54       0.0297
     35  CG        18.3590   34.4760   27.6780 C.3    54  LEU54       0.0022
     36  CD1       19.1680   34.2340   28.9640 C.3    54  LEU54       0.0001
     37  CD2       19.0230   35.4850   26.7540 C.3    54  LEU54       0.0001
     38  N         19.6330   31.0300   22.1970 N.3    57  ARG57      -0.1245
     39  CA        21.0720   31.2320   22.4790 C.3    57  ARG57       0.1563
     40  C         21.8050   29.8830   22.6050 C.2    57  ARG57       0.2260
     41  O         21.2620   28.9360   23.1820 O.2    57  ARG57      -0.2867
     42  CB        21.2680   32.0210   23.7830 C.3    57  ARG57       0.0307
     43  CG        20.6080   33.4090   23.8150 C.3    57  ARG57       0.0489
     44  CD        21.2070   34.3600   22.7990 C.3    57  ARG57       0.2205
     45  NE        22.5700   34.7550   23.1580 N.pl3  57  ARG57      -0.0865
     46  CZ        22.8720   35.6390   24.1250 C.cat  57  ARG57       0.5346
     47  NH1       21.9170   36.2480   24.8330 N.pl3  57  ARG57       0.1354
     48  NH2       24.1490   35.9310   24.3820 N.pl3  57  ARG57       0.1354
     49  N         23.9630   28.7380   24.5390 N.3    59  PHE59      -0.1241
     50  CA        24.1550   28.2750   25.9120 C.3    59  PHE59       0.1605
     51  C         22.8450   27.8920   26.6240 C.2    59  PHE59       0.2264
     52  O         22.8720   27.3810   27.7420 O.2    59  PHE59      -0.2867
     53  CB        24.9720   29.3080   26.7110 C.3    59  PHE59       0.0534
     54  CG        24.3210   30.6530   26.7990 C.ar   59  PHE59      -0.0203
     55  CD1       23.2720   30.8590   27.6680 C.ar   59  PHE59      -0.0042
     56  CD2       24.7230   31.6880   25.9800 C.ar   59  PHE59      -0.0042
     57  CE1       22.6400   32.1090   27.7570 C.ar   59  PHE59      -0.0003
     58  CE2       24.1030   32.9150   26.0480 C.ar   59  PHE59      -0.0003
     59  CZ        23.0530   33.1200   26.9440 C.ar   59  PHE59      -0.0000
     60  N         22.2450   24.1150   28.0620 N.3    62  GLY62      -0.1210
     61  CA        23.1280   23.8780   29.2210 C.3    62  GLY62       0.1956
     62  C         22.7680   24.7130   30.4350 C.2    62  GLY62       0.2611
     63  O         22.9570   24.3070   31.5520 O.2    62  GLY62      -0.2717
     64  N         22.2710   25.9210   30.1900 N.am   63  LEU63      -0.1979
     65  CA        21.8030   26.7960   31.2530 C.3    63  LEU63       0.1596
     66  C         20.6300   26.1830   32.0370 C.2    63  LEU63       0.2287
     67  O         20.6470   26.0660   33.2620 O.2    63  LEU63      -0.2864
     68  CB        21.4350   28.1740   30.6560 C.3    63  LEU63       0.0297
     69  CG        20.6950   29.1490   31.5950 C.3    63  LEU63       0.0022
     70  CD1       21.5780   29.4620   32.8700 C.3    63  LEU63       0.0001
     71  CD2       20.2770   30.4250   30.8320 C.3    63  LEU63       0.0001
     72  N         21.9700   23.0600   33.9390 N.3    66  TYR66      -0.1241
     73  CA        22.6780   23.4900   35.1480 C.3    66  TYR66       0.1605
     74  C         21.7320   24.0330   36.2230 C.2    66  TYR66       0.2264
     75  O         21.8800   23.6990   37.3850 O.2    66  TYR66      -0.2867
     76  CB        23.7580   24.5190   34.7810 C.3    66  TYR66       0.0534
     77  CG        24.0130   25.7000   35.7420 C.ar   66  TYR66      -0.0201
     78  CD1       24.6010   25.5350   36.9980 C.ar   66  TYR66      -0.0009
     79  CD2       23.7300   26.9930   35.3210 C.ar   66  TYR66      -0.0009
     80  CE1       24.8850   26.6760   37.8210 C.ar   66  TYR66       0.0417
     81  CE2       23.9870   28.1100   36.0960 C.ar   66  TYR66       0.0417
     82  CZ        24.5390   27.9690   37.3520 C.ar   66  TYR66       0.1957
     83  OH        24.7780   29.1220   38.0560 O.3    66  TYR66      -0.2866
     84  N         20.7020   44.5660   40.9710 N.3    87  ARG87      -0.1245
     85  CA        21.6000   44.2280   39.8580 C.3    87  ARG87       0.1563
     86  C         23.0140   44.6800   40.1840 C.2    87  ARG87       0.2260
     87  O         23.9860   43.9300   40.0050 O.2    87  ARG87      -0.2867
     88  CB        21.0970   44.8630   38.5510 C.3    87  ARG87       0.0307
     89  CG        19.7510   44.2660   38.0870 C.3    87  ARG87       0.0489
     90  CD        19.9120   42.8980   37.4240 C.3    87  ARG87       0.2205
     91  NE        20.5660   42.9460   36.1150 N.pl3  87  ARG87      -0.0865
     92  CZ        20.5380   41.9460   35.2120 C.cat  87  ARG87       0.5346
     93  NH1       19.9230   40.8120   35.4800 N.pl3  87  ARG87       0.1354
     94  NH2       21.1760   42.0630   34.0650 N.pl3  87  ARG87       0.1354
     95  N         26.8280   40.4030   34.5820 N.3    93  THR93      -0.1218
     96  CA        26.4690   39.0410   34.1710 C.3    93  THR93       0.1862
     97  C         27.7100   38.2000   34.2220 C.2    93  THR93       0.2287
     98  O         27.7220   37.1170   34.7770 O.2    93  THR93      -0.2866
     99  CB        25.8860   39.0060   32.7060 C.3    93  THR93       0.1770
    100  OG1       24.7970   39.9360   32.6190 O.3    93  THR93      -0.2211
    101  CG2       25.4370   37.5680   32.3430 C.3    93  THR93       0.0375
    102  N         29.0480   38.5380   42.7540 N.3   104  ARG104     -0.1245
    103  CA        29.8320   37.8250   41.7490 C.3   104  ARG104      0.1563
    104  C         31.3260   38.2100   41.8230 C.2   104  ARG104      0.2260
    105  O         32.1760   37.3430   41.7100 O.2   104  ARG104     -0.2867
    106  CB        29.3000   38.0560   40.3560 C.3   104  ARG104      0.0307
    107  CG        27.9720   37.3830   40.1470 C.3   104  ARG104      0.0489
    108  CD        27.4210   37.6600   38.7810 C.3   104  ARG104      0.2205
    109  NE        26.1010   37.0630   38.6170 N.pl3 104  ARG104     -0.0865
    110  CZ        25.0950   37.6770   38.0170 C.cat 104  ARG104      0.5346
    111  NH1       25.2580   38.8880   37.4610 N.pl3 104  ARG104      0.1354
    112  NH2       23.9180   37.0690   37.9340 N.pl3 104  ARG104      0.1354
    113  N         31.0820   32.8640   33.6910 N.3   111  VAL111     -0.1231
    114  CA        29.6710   33.2820   33.4210 C.3   111  VAL111      0.1692
    115  C         28.6990   32.1120   33.5390 C.2   111  VAL111      0.2593
    116  O         27.5640   32.2680   34.0380 O.2   111  VAL111     -0.2718
    117  CB        29.5120   33.9750   32.0440 C.3   111  VAL111      0.0266
    118  CG1       29.7820   33.0120   30.9040 C.3   111  VAL111      0.0020
    119  CG2       28.1450   34.6850   31.9670 C.3   111  VAL111      0.0020
    120  N         29.1370   30.9320   33.0890 N.am  112  GLY112     -0.1942
    121  CA        28.3340   29.6980   33.2530 C.3   112  GLY112      0.2014
    122  C         28.0770   29.2000   34.6810 C.2   112  GLY112      0.2639
    123  O         27.2340   28.3270   34.8720 O.2   112  GLY112     -0.2714
    124  N         28.8020   29.7330   35.6760 N.am  113  ARG113     -0.1963
    125  CA        28.6110   29.4120   37.0970 C.3   113  ARG113      0.1729
    126  C         28.6350   30.7540   37.8570 C.2   113  ARG113      0.2616
    127  O         29.5630   31.0550   38.5810 O.2   113  ARG113     -0.2715
    128  CB        29.6970   28.4470   37.6160 C.3   113  ARG113      0.0348
    129  CG        29.6990   27.0530   36.9210 C.3   113  ARG113      0.0492
    130  CD        28.5420   26.2000   37.3650 C.3   113  ARG113      0.2205
    131  NE        28.6300   24.8510   36.7970 N.pl3 113  ARG113     -0.0865
    132  CZ        28.2230   24.5120   35.5820 C.cat 113  ARG113      0.5346
    133  NH1       27.6090   25.3780   34.7740 N.pl3 113  ARG113      0.1354
    134  NH2       28.3720   23.2470   35.2050 N.pl3 113  ARG113      0.1354
    135  N         27.5950   31.5540   37.6700 N.am  114  ASN114     -0.1972
    136  CA        27.6050   32.9340   38.1960 C.3   114  ASN114      0.1688
    137  C         26.6840   33.1770   39.4350 C.2   114  ASN114      0.2292
    138  O         26.2330   34.3190   39.6830 O.2   114  ASN114     -0.2864
    139  CB        27.3760   33.9530   37.0660 C.3   114  ASN114      0.1181
    140  CG        25.9120   34.0280   36.6020 C.2   114  ASN114      0.2629
    141  OD1       25.0890   33.2040   36.9920 O.2   114  ASN114     -0.2716
    142  ND2       25.6090   35.0180   35.7470 N.am  114  ASN114     -0.0877
    143  N         20.7950   34.9450   40.2510 N.3   117  HIS117     -0.1226
    144  CA        19.9750   35.6760   39.3030 C.3   117  HIS117      0.1752
    145  C         19.2720   36.8530   40.0110 C.2   117  HIS117      0.2596
    146  O         18.8300   36.7190   41.1360 O.2   117  HIS117     -0.2718
    147  CB        18.8330   34.7750   38.7660 C.3   117  HIS117      0.0759
    148  CG        17.7900   35.5390   38.0180 C.ar  117  HIS117      0.0818
    149  ND1       17.8710   35.7860   36.6680 N.ar  117  HIS117     -0.2268
    150  CD2       16.6520   36.1430   38.4490 C.ar  117  HIS117      0.1154
    151  CE1       16.8100   36.4850   36.2950 C.ar  117  HIS117      0.1986
    152  NE2       16.0530   36.7040   37.3560 N.ar  117  HIS117     -0.2212
    153  N         19.1330   37.9850   39.3270 N.am  118  GLY118     -0.1957
    154  CA        18.2270   39.0390   39.7460 C.3   118  GLY118      0.1869
    155  C         17.5320   39.6360   38.5340 C.2   118  GLY118      0.2309
    156  O         18.1280   39.7420   37.4480 O.2   118  GLY118     -0.2863
    157  N         16.2490   41.8490   35.6700 N.3   120  ASP120     -0.1239
    158  CA        16.9000   42.9820   34.9490 C.3   120  ASP120      0.1674
    159  C         16.0790   44.3070   34.8550 C.2   120  ASP120      0.2266
    160  O         16.6360   45.3800   34.5000 O.2   120  ASP120     -0.2867
    161  CB        17.2700   42.5590   33.5270 C.3   120  ASP120      0.1410
    162  CG        16.0470   42.4220   32.6120 C.2   120  ASP120      0.3668
    163  OD1       15.2940   41.4680   32.7360 O.co2 120  ASP120     -0.2456
    164  OD2       15.8080   43.2940   31.7650 O.co2 120  ASP120     -0.2456
@<TRIPOS>BOND
     1    38    39    1
     2    39    40    1
     3    39    42    1
     4    40    41    2
     5    44    45    1
     6    44    43    1
     7    45    46    2
     8    42    43    1
     9    46    48    1
    10    46    47    1
    11    25    24    2
    12    49    50    1
    13    33    32    2
    14    32    31    1
    15    24    23    1
    16    24    30   am
    17    31    30    1
    18    31    34    1
    19    50    51    1
    20    50    53    1
    21    56    58   ar
    22    56    54   ar
    23    23    26    1
    24    23    22    1
    25    58    59   ar
    26    51    52    2
    27    26    27    1
    28    53    54    1
    29    37    35    1
    30    54    55   ar
    31    34    35    1
    32    59    57   ar
    33    29    27   ar
    34    55    57   ar
    35    35    36    1
    36    27    28   ar
    37    60    61    1
    38    13    12    2
    39    12    11    1
    40    61    62    1
    41    64    62   am
    42    64    65    1
    43    62    63    2
    44    11    14    1
    45    11    10    1
    46    14    15    1
    47    68    65    1
    48    68    69    1
    49    71    69    1
    50   118   117    1
    51    65    66    1
    52    69    70    1
    53   164   162   ar
    54    15    16   ar
    55    15    17   ar
    56   119   117    1
    57    66    67    2
    58   117   114    1
    59    16    18   ar
    60   101    99    1
    61   162   163   ar
    62   162   161    1
    63   100    99    1
    64    17    19   ar
    65    99    96    1
    66   120   121    1
    67   120   115   am
    68    18    20   ar
    69   121   122    1
    70   114   115    1
    71   114   113    1
    72   161   158    1
    73   115   116    2
    74    19    20   ar
    75    72    73    1
    76    94    92    1
    77    20    21    1
    78    96    97    1
    79    96    95    1
    80    97    98    2
    81   160   159    2
    82   122   123    2
    83   122   124   am
    84   133   132    1
    85    76    73    1
    86    76    77    1
    87   159   158    1
    88   158   157    1
    89    73    74    1
    90   134   132    1
    91    92    93    1
    92    92    91    2
    93    79    77   ar
    94    79    81   ar
    95   132   131    2
    96   124   125    1
    97    77    78   ar
    98   142   140   am
    99    81    82   ar
   100    91    90    1
   101    74    75    2
   102   151   149   ar
   103   151   152   ar
   104     9     8    1
   105   140   141    2
   106   140   139    1
   107   149   148   ar
   108   131   130    1
   109   129   130    1
   110   129   128    1
   111    78    80   ar
   112   139   136    1
   113   125   128    1
   114   125   126    1
   115    82    80   ar
   116    82    83    1
   117   152   150   ar
   118    90    89    1
   119   156   155    2
   120   111   110    1
   121     8     7    1
   122   135   126   am
   123   135   136    1
   124   126   127    2
   125   112   110    1
   126   110   109    2
   127   148   150   ar
   128   148   147    1
   129    89    88    1
   130   136   137    1
   131     7     6    1
   132   155   154    1
   133    88    85    1
   134   109   108    1
   135   147   144    1
   136   108   107    1
   137   144   145    1
   138   144   143    1
   139   153   154    1
   140   153   145   am
   141   137   138    2
   142     6     5    1
   143    85    86    1
   144    85    84    1
   145    87    86    2
   146   145   146    2
   147   107   106    1
   148   106   103    1
   149     5     2    1
   150     2     3    1
   151     2     1    1
   152   105   104    2
   153   103   104    1
   154   103   102    1
   155     3     4    2
