@<TRIPOS>MOLECULE
tmp/3bbhA00.pdb
 177 174 0 0 0
SMALL
GASTEIGER

@<TRIPOS>ATOM
      1  N         36.1990   58.8590    5.2770 N.3    56  ILE56      -0.1245
      2  CA        37.2810   59.2600    6.1720 C.3    56  ILE56       0.1561
      3  C         37.1050   60.7170    6.6060 C.2    56  ILE56       0.2260
      4  O         37.3110   61.0610    7.7640 O.2    56  ILE56      -0.2867
      5  CB        38.6680   59.0830    5.5110 C.3    56  ILE56       0.0252
      6  CG1       39.0300   57.5960    5.4020 C.3    56  ILE56       0.0019
      7  CG2       39.7450   59.8090    6.3170 C.3    56  ILE56       0.0019
      8  CD1       40.2740   57.3400    4.5480 C.3    56  ILE56       0.0001
      9  N         51.1340   64.6190   11.2490 N.3   140  MET140     -0.1230
     10  CA        50.8690   63.4010   11.9610 C.3   140  MET140      0.1702
     11  C         51.1570   62.2320   11.0330 C.2   140  MET140      0.2593
     12  O         50.7150   62.2180    9.8820 O.2   140  MET140     -0.2718
     13  CB        49.4350   63.4060   12.4510 C.3   140  MET140      0.0401
     14  CG        49.0420   64.7420   13.0770 C.3   140  MET140      0.0596
     15  SD        50.1100   65.2090   14.4780 S.3   140  MET140     -0.1393
     16  CE        49.5840   64.0270   15.7170 C.3   140  MET140      0.0692
     17  N         51.9450   61.2830   11.5350 N.am  141  THR141     -0.1939
     18  CA        52.2640   60.0520   10.8190 C.3   141  THR141      0.2028
     19  C         52.8620   59.0340   11.7800 C.2   141  THR141      0.2642
     20  O         53.6810   59.3840   12.6310 O.2   141  THR141     -0.2714
     21  CB        53.2620   60.2860    9.6560 C.3   141  THR141      0.1808
     22  OG1       53.8490   59.0340    9.2900 O.3   141  THR141     -0.2208
     23  CG2       54.3720   61.2440   10.0630 C.3   141  THR141      0.0379
     24  N         52.4530   57.7780   11.6430 N.am  142  LYS142     -0.1963
     25  CA        52.9490   56.7090   12.5130 C.3   142  LYS142      0.1728
     26  C         54.4650   56.4950   12.4150 C.2   142  LYS142      0.2616
     27  O         55.0490   55.7790   13.2330 O.2   142  LYS142     -0.2715
     28  CB        52.2170   55.3920   12.2260 C.3   142  LYS142      0.0311
     29  CG        52.6400   54.6830   10.9380 C.3   142  LYS142      0.0038
     30  CD        51.8980   53.3570   10.8040 C.3   142  LYS142      0.0206
     31  CE        52.3800   52.5370    9.6160 C.3   142  LYS142      0.1093
     32  NZ        51.4540   51.4000    9.3030 N.3   142  LYS142     -0.1314
     33  N         55.1010   57.1130   11.4230 N.am  143  THR143     -0.1951
     34  CA        56.5420   56.9530   11.2300 C.3   143  THR143      0.1897
     35  C         57.3200   58.1510   11.7610 C.2   143  THR143      0.2313
     36  O         58.5370   58.2130   11.6200 O.2   143  THR143     -0.2863
     37  CB        56.9170   56.7170    9.7440 C.3   143  THR143      0.1794
     38  OG1       56.7660   57.9360    8.9990 O.3   143  THR143     -0.2208
     39  CG2       56.0410   55.6190    9.1270 C.3   143  THR143      0.0378
     40  N         46.6760   65.9240    9.0840 N.3   160  ILE160     -0.1231
     41  CA        46.3600   64.5150    9.1350 C.3   160  ILE160      0.1692
     42  C         45.9780   64.0880    7.7240 C.2   160  ILE160      0.2592
     43  O         45.1990   64.7670    7.0630 O.2   160  ILE160     -0.2718
     44  CB        45.1780   64.2510   10.1070 C.3   160  ILE160      0.0266
     45  CG1       45.4800   64.8280   11.4980 C.3   160  ILE160      0.0019
     46  CG2       44.8340   62.7740   10.1690 C.3   160  ILE160      0.0020
     47  CD1       45.1180   66.3110   11.6520 C.3   160  ILE160      0.0001
     48  N         46.5340   62.9760    7.2570 N.am  161  GLY161     -0.1957
     49  CA        46.1770   62.4470    5.9540 C.3   161  GLY161      0.1869
     50  C         44.7200   62.0140    5.8950 C.2   161  GLY161      0.2309
     51  O         44.2750   61.1780    6.6720 O.2   161  GLY161     -0.2863
     52  N         43.3400   60.1170    3.8080 N.3   163  PHE163     -0.1228
     53  CA        43.4000   59.0610    2.7970 C.3   163  PHE163      0.1721
     54  C         43.6060   57.6960    3.4440 C.2   163  PHE163      0.2437
     55  O         44.0630   57.6090    4.5840 O.2   163  PHE163     -0.2733
     56  CB        44.4930   59.3480    1.7570 C.3   163  PHE163      0.0547
     57  CG        45.8460   59.6670    2.3500 C.ar  163  PHE163     -0.0202
     58  CD1       46.6580   58.6590    2.8520 C.ar  163  PHE163     -0.0042
     59  CD2       46.3140   60.9730    2.3830 C.ar  163  PHE163     -0.0042
     60  CE1       47.9100   58.9500    3.3860 C.ar  163  PHE163     -0.0003
     61  CE2       47.5640   61.2710    2.9130 C.ar  163  PHE163     -0.0003
     62  CZ        48.3640   60.2600    3.4140 C.ar  163  PHE163     -0.0000
     63  N         43.2500   56.6270    2.7200 N.am  164  PRO164     -0.2718
     64  CA        43.2790   55.2580    3.2450 C.3   164  PRO164      0.1535
     65  C         44.7030   54.7410    3.4810 C.2   164  PRO164      0.2599
     66  O         45.0850   54.4020    4.6070 O.2   164  PRO164     -0.2715
     67  CB        42.6280   54.4340    2.1250 C.3   164  PRO164      0.0310
     68  CG        42.0430   55.4100    1.1630 C.3   164  PRO164      0.0237
     69  CD        42.7960   56.6790    1.3200 C.3   164  PRO164      0.0939
     70  N         45.4770   54.6770    2.4030 N.am  165  TYR165     -0.1960
     71  CA        46.8150   54.0980    2.4490 C.3   165  TYR165      0.1771
     72  C         47.8460   55.0250    1.8200 C.2   165  TYR165      0.2620
     73  O         47.6260   55.5750    0.7370 O.2   165  TYR165     -0.2715
     74  CB        46.8330   52.7410    1.7320 C.3   165  TYR165      0.0574
     75  CG        45.9430   51.6920    2.3750 C.ar  165  TYR165     -0.0198
     76  CD1       46.3170   51.0790    3.5690 C.ar  165  TYR165     -0.0009
     77  CD2       44.7310   51.3140    1.7920 C.ar  165  TYR165     -0.0009
     78  CE1       45.5150   50.1220    4.1680 C.ar  165  TYR165      0.0417
     79  CE2       43.9210   50.3540    2.3880 C.ar  165  TYR165      0.0417
     80  CZ        44.3220   49.7630    3.5770 C.ar  165  TYR165      0.1957
     81  OH        43.5390   48.8070    4.1870 O.3   165  TYR165     -0.2866
     82  N         48.9740   55.1850    2.5030 N.am  166  GLY166     -0.1940
     83  CA        50.0660   55.9870    1.9860 C.3   166  GLY166      0.2014
     84  C         50.7470   56.7930    3.0700 C.2   166  GLY166      0.2639
     85  O         50.5390   56.5750    4.2730 O.2   166  GLY166     -0.2714
     86  N         51.5800   57.7270    2.6380 N.am  167  LYS167     -0.1963
     87  CA        52.1670   58.6850    3.5590 C.3   167  LYS167      0.1728
     88  C         52.0050   60.0880    2.9930 C.2   167  LYS167      0.2616
     89  O         51.9610   60.3010    1.7710 O.2   167  LYS167     -0.2715
     90  CB        53.6420   58.3800    3.8310 C.3   167  LYS167      0.0311
     91  CG        54.2490   59.2550    4.9230 C.3   167  LYS167      0.0038
     92  CD        55.7610   59.1160    4.9780 C.3   167  LYS167      0.0206
     93  CE        56.3520   59.9060    6.1360 C.3   167  LYS167      0.1093
     94  NZ        57.8300   59.7140    6.2040 N.3   167  LYS167     -0.1314
     95  N         51.8930   61.0400    3.9030 N.am  168  LEU168     -0.1977
     96  CA        51.7010   62.4260    3.5390 C.3   168  LEU168      0.1596
     97  C         53.0410   63.0260    3.1150 C.2   168  LEU168      0.2287
     98  O         53.9890   63.0440    3.9000 O.2   168  LEU168     -0.2864
     99  CB        51.1510   63.1570    4.7570 C.3   168  LEU168      0.0297
    100  CG        50.4750   64.5080    4.5990 C.3   168  LEU168      0.0022
    101  CD1       49.5860   64.5270    3.3830 C.3   168  LEU168      0.0001
    102  CD2       49.6790   64.7730    5.8660 C.3   168  LEU168      0.0001
    103  N         55.3710   63.7370   13.3610 N.3   182  ILE182     -0.1231
    104  CA        54.9920   63.3900   14.7240 C.3   182  ILE182      0.1692
    105  C         54.0520   62.1940   14.7700 C.2   182  ILE182      0.2593
    106  O         52.9680   62.2230   14.1820 O.2   182  ILE182     -0.2718
    107  CB        54.2530   64.5590   15.3780 C.3   182  ILE182      0.0266
    108  CG1       55.2110   65.7290   15.6030 C.3   182  ILE182      0.0019
    109  CG2       53.5830   64.1140   16.6670 C.3   182  ILE182      0.0020
    110  CD1       56.4100   65.3840   16.4590 C.3   182  ILE182      0.0001
    111  N         54.4690   61.1470   15.4720 N.am  183  SER183     -0.1938
    112  CA        53.6010   60.0060   15.7630 C.3   183  SER183      0.2055
    113  C         53.1060   60.0870   17.2100 C.2   183  SER183      0.2643
    114  O         53.8790   60.3970   18.1170 O.2   183  SER183     -0.2714
    115  CB        54.3570   58.6900   15.5430 C.3   183  SER183      0.2130
    116  OG        53.5450   57.5630   15.8460 O.3   183  SER183     -0.2179
    117  N         51.8220   59.8230   17.4320 N.am  184  ILE184     -0.1963
    118  CA        51.2910   59.8140   18.7950 C.3   184  ILE184      0.1727
    119  C         50.9780   58.3870   19.2610 C.2   184  ILE184      0.2616
    120  O         50.3200   58.1840   20.2820 O.2   184  ILE184     -0.2715
    121  CB        50.0490   60.7380   18.9440 C.3   184  ILE184      0.0290
    122  CG1       49.1120   60.5970   17.7400 C.3   184  ILE184      0.0022
    123  CG2       50.4710   62.1860   19.0810 C.3   184  ILE184      0.0023
    124  CD1       48.1940   59.4130   17.8210 C.3   184  ILE184      0.0001
    125  N         51.4650   57.4080   18.5000 N.am  185  TYR185     -0.1974
    126  CA        51.2290   55.9960   18.7850 C.3   185  TYR185      0.1639
    127  C         51.9940   55.0950   17.7990 C.2   185  TYR185      0.2290
    128  O         52.1490   55.4400   16.6260 O.2   185  TYR185     -0.2864
    129  CB        49.7270   55.6950   18.7330 C.3   185  TYR185      0.0560
    130  CG        49.3290   54.4510   19.4990 C.ar  185  TYR185     -0.0198
    131  CD1       49.5290   54.3660   20.8730 C.ar  185  TYR185     -0.0009
    132  CD2       48.7440   53.3660   18.8480 C.ar  185  TYR185     -0.0009
    133  CE1       49.1660   53.2320   21.5800 C.ar  185  TYR185      0.0417
    134  CE2       48.3760   52.2260   19.5420 C.ar  185  TYR185      0.0417
    135  CZ        48.5910   52.1630   20.9100 C.ar  185  TYR185      0.1957
    136  OH        48.2250   51.0330   21.6110 O.3   185  TYR185     -0.2866
    137  N         51.2160   52.2130   16.4800 N.3   187  LYS187     -0.1231
    138  CA        50.4290   51.4840   15.5040 C.3   187  LYS187      0.1693
    139  C         49.8130   52.5120   14.5640 C.2   187  LYS187      0.2593
    140  O         49.7050   53.6860   14.9190 O.2   187  LYS187     -0.2718
    141  CB        49.3490   50.6560   16.2060 C.3   187  LYS187      0.0285
    142  CG        48.7010   49.5860   15.3300 C.3   187  LYS187      0.0035
    143  CD        47.7740   48.6740   16.1400 C.3   187  LYS187      0.0206
    144  CE        47.0360   47.6860   15.2360 C.3   187  LYS187      0.1093
    145  NZ        46.2530   46.6790   16.0140 N.3   187  LYS187     -0.1314
    146  N         49.4390   52.0870   13.3630 N.am  188  GLY188     -0.1942
    147  CA        48.6730   52.9450   12.4810 C.3   188  GLY188      0.2014
    148  C         47.2470   53.0930   12.9920 C.2   188  GLY188      0.2639
    149  O         46.5760   52.1030   13.2690 O.2   188  GLY188     -0.2714
    150  N         46.7880   54.3300   13.1370 N.am  189  LEU189     -0.1963
    151  CA        45.4180   54.5910   13.5560 C.3   189  LEU189      0.1728
    152  C         44.6360   55.1500   12.3820 C.2   189  LEU189      0.2616
    153  O         45.2310   55.6260   11.4190 O.2   189  LEU189     -0.2715
    154  CB        45.3940   55.5890   14.7130 C.3   189  LEU189      0.0311
    155  CG        46.2160   55.1440   15.9210 C.3   189  LEU189      0.0022
    156  CD1       46.3420   56.2680   16.9400 C.3   189  LEU189      0.0001
    157  CD2       45.5730   53.9050   16.5380 C.3   189  LEU189      0.0001
    158  N         43.3080   55.0850   12.4550 N.am  190  MET190     -0.1963
    159  CA        42.4690   55.7300   11.4600 C.3   190  MET190      0.1736
    160  C         42.5640   57.2330   11.6570 C.2   190  MET190      0.2616
    161  O         42.8580   57.7010   12.7620 O.2   190  MET190     -0.2715
    162  CB        41.0140   55.2770   11.6050 C.3   190  MET190      0.0427
    163  CG        40.8100   53.7700   11.5010 C.3   190  MET190      0.0599
    164  SD        41.4580   53.0650    9.9670 S.3   190  MET190     -0.1393
    165  CE        40.6410   54.1070    8.7650 C.3   190  MET190      0.0692
    166  N         42.2990   57.9870   10.5930 N.am  191  ALA191     -0.1977
    167  CA        42.4080   59.4430   10.6210 C.3   191  ALA191      0.1597
    168  C         41.5260   60.1050   11.6840 C.2   191  ALA191      0.2287
    169  O         41.9210   61.0980   12.2960 O.2   191  ALA191     -0.2864
    170  CB        42.0980   60.0370    9.2310 C.3   191  ALA191      0.0319
    171  N         42.9970   59.9510   15.0710 N.3   194  VAL194     -0.1245
    172  CA        44.0960   60.8950   15.2570 C.3   194  VAL194      0.1561
    173  C         43.5330   62.2880   15.4750 C.2   194  VAL194      0.2260
    174  O         43.9980   63.0190   16.3450 O.2   194  VAL194     -0.2867
    175  CB        45.0880   60.9020   14.0690 C.3   194  VAL194      0.0252
    176  CG1       46.1410   61.9790   14.2700 C.3   194  VAL194      0.0019
    177  CG2       45.7320   59.5320   13.8960 C.3   194  VAL194      0.0019
@<TRIPOS>BOND
     1    73    72    2
     2    68    69    1
     3    68    67    1
     4    69    63    1
     5    74    75    1
     6    74    71    1
     7    56    57    1
     8    56    53    1
     9    89    88    2
    10    77    75   ar
    11    77    79   ar
    12    72    71    1
    13    72    82   am
    14    83    82    1
    15    83    84    1
    16    67    64    1
    17    57    59   ar
    18    57    58   ar
    19    75    76   ar
    20    59    61   ar
    21    79    80   ar
    22    70    71    1
    23    70    65   am
    24    86    84   am
    25    86    87    1
    26    63    64    1
    27    63    54   am
    28    53    54    1
    29    53    52    1
    30    58    60   ar
    31    61    62   ar
    32    88    87    1
    33    88    95   am
    34    84    85    2
    35    97    96    1
    36    97    98    2
    37    64    65    1
    38   101   100    1
    39    60    62   ar
    40    54    55    2
    41    65    66    2
    42    96    95    1
    43    96    99    1
    44    87    90    1
    45    76    78   ar
    46    80    78   ar
    47    80    81    1
    48    90    91    1
    49     8     6    1
    50   100    99    1
    51   100   102    1
    52    91    92    1
    53    92    93    1
    54     1     2    1
    55     6     5    1
    56     5     2    1
    57     5     7    1
    58    50    49    1
    59    50    51    2
    60    49    48    1
    61    93    94    1
    62     2     3    1
    63     3     4    2
    64    43    42    2
    65    48    42   am
    66    42    41    1
    67   165   164    1
    68    38    37    1
    69    40    41    1
    70    39    37    1
    71    41    44    1
    72   170   167    1
    73    22    21    1
    74    32    31    1
    75    31    30    1
    76    21    23    1
    77    21    18    1
    78    37    34    1
    79    12    11    2
    80   164   163    1
    81    44    46    1
    82    44    45    1
    83   166   167    1
    84   166   160   am
    85   167   168    1
    86    30    29    1
    87    18    17    1
    88    18    19    1
    89    29    28    1
    90    11    17   am
    91    11    10    1
    92    34    33    1
    93    34    35    1
    94     9    10    1
    95   153   152    2
    96    33    26   am
    97   159   162    1
    98   159   160    1
    99   159   158    1
   100    45    47    1
   101   163   162    1
   102    36    35    2
   103    24    19   am
   104    24    25    1
   105   160   161    2
   106   168   169    2
   107    19    20    2
   108    10    13    1
   109    28    25    1
   110   152   158   am
   111   152   151    1
   112    26    25    1
   113    26    27    2
   114    13    14    1
   115   147   148    1
   116   147   146    1
   117   148   150   am
   118   148   149    2
   119    14    15    1
   120   150   151    1
   121   103   104    1
   122   146   139   am
   123   151   154    1
   124   177   175    1
   125   175   176    1
   126   175   172    1
   127   106   105    2
   128    15    16    1
   129   139   140    2
   130   139   138    1
   131   154   155    1
   132   104   105    1
   133   104   107    1
   134   105   111   am
   135   171   172    1
   136   144   145    1
   137   144   143    1
   138   172   173    1
   139   142   143    1
   140   142   141    1
   141   107   108    1
   142   107   109    1
   143   111   112    1
   144   173   174    2
   145   138   141    1
   146   138   137    1
   147   115   112    1
   148   115   116    1
   149   108   110    1
   150   112   113    1
   151   155   157    1
   152   155   156    1
   153   128   127    2
   154   113   117   am
   155   113   114    2
   156   117   118    1
   157   122   124    1
   158   122   121    1
   159   127   126    1
   160   125   126    1
   161   125   119   am
   162   129   126    1
   163   129   130    1
   164   118   121    1
   165   118   119    1
   166   132   130   ar
   167   132   134   ar
   168   121   123    1
   169   119   120    2
   170   130   131   ar
   171   134   135   ar
   172   131   133   ar
   173   135   133   ar
   174   135   136    1
