@<TRIPOS>MOLECULE
tmp/3bbrA01.pdb
 105 101 0 0 0
SMALL
GASTEIGER

@<TRIPOS>ATOM
      1  N         86.6020   21.2500   32.3990 N.3    90  ILE90      -0.1245
      2  CA        86.5810   20.2760   33.4720 C.3    90  ILE90       0.1561
      3  C         87.7400   19.3180   33.2630 C.2    90  ILE90       0.2260
      4  O         87.8180   18.6410   32.2290 O.2    90  ILE90      -0.2867
      5  CB        85.2400   19.4880   33.4820 C.3    90  ILE90       0.0252
      6  CG1       84.0720   20.4230   33.8050 C.3    90  ILE90       0.0019
      7  CG2       85.2780   18.3290   34.4830 C.3    90  ILE90       0.0019
      8  CD1       82.7040   19.7830   33.5760 C.3    90  ILE90       0.0001
      9  N         77.9820   20.0880   36.4330 N.3   102  LYS102     -0.1231
     10  CA        77.8350   19.3790   35.1820 C.3   102  LYS102      0.1678
     11  C         78.1270   20.3850   34.0660 C.2   102  LYS102      0.2434
     12  O         77.8980   21.5820   34.2310 O.2   102  LYS102     -0.2733
     13  CB        76.4140   18.8180   35.0840 C.3   102  LYS102      0.0284
     14  CG        76.0900   17.7370   36.1380 C.3   102  LYS102      0.0035
     15  CD        77.1170   16.6210   36.0760 C.3   102  LYS102      0.0206
     16  CE        76.6870   15.4120   36.8930 C.3   102  LYS102      0.1093
     17  NZ        76.4930   15.7080   38.3340 N.3   102  LYS102     -0.1314
     18  N         78.6670   19.9150   32.9380 N.am  103  PRO103     -0.2718
     19  CA        79.1170   20.8410   31.8910 C.3   103  PRO103      0.1535
     20  C         77.9600   21.6210   31.2930 C.2   103  PRO103      0.2599
     21  O         76.8780   21.0670   31.1760 O.2   103  PRO103     -0.2715
     22  CB        79.7180   19.9040   30.8340 C.3   103  PRO103      0.0310
     23  CG        79.1270   18.5410   31.1530 C.3   103  PRO103      0.0237
     24  CD        79.0590   18.5300   32.6400 C.3   103  PRO103      0.0939
     25  N         78.1770   22.8840   30.9350 N.am  104  PHE104     -0.1960
     26  CA        77.1320   23.6720   30.2910 C.3   104  PHE104      0.1771
     27  C         77.3510   23.7660   28.7830 C.2   104  PHE104      0.2619
     28  O         76.5060   24.2900   28.0580 O.2   104  PHE104     -0.2715
     29  CB        77.0280   25.0750   30.9100 C.3   104  PHE104      0.0574
     30  CG        78.3050   25.8590   30.8680 C.ar  104  PHE104     -0.0200
     31  CD1       78.6650   26.5560   29.7310 C.ar  104  PHE104     -0.0042
     32  CD2       79.1430   25.9030   31.9720 C.ar  104  PHE104     -0.0042
     33  CE1       79.8420   27.2840   29.6880 C.ar  104  PHE104     -0.0003
     34  CE2       80.3210   26.6280   31.9430 C.ar  104  PHE104     -0.0003
     35  CZ        80.6750   27.3190   30.7950 C.ar  104  PHE104     -0.0000
     36  N         78.4930   23.2600   28.3260 N.am  105  MET105     -0.1963
     37  CA        78.8540   23.2920   26.9070 C.3   105  MET105      0.1736
     38  C         79.8830   22.2130   26.5840 C.2   105  MET105      0.2617
     39  O         80.7690   21.9200   27.3980 O.2   105  MET105     -0.2715
     40  CB        79.4080   24.6580   26.5200 C.3   105  MET105      0.0427
     41  CG        79.5510   24.8680   25.0190 C.3   105  MET105      0.0599
     42  SD        80.0470   26.5490   24.5980 S.3   105  MET105     -0.1393
     43  CE        78.6470   27.4950   25.1540 C.3   105  MET105      0.0692
     44  N         79.7690   21.6290   25.3960 N.am  106  SER106     -0.1950
     45  CA        80.6790   20.5680   24.9770 C.3   106  SER106      0.1924
     46  C         81.7340   21.1540   24.0660 C.2   106  SER106      0.2314
     47  O         81.5050   22.1750   23.4200 O.2   106  SER106     -0.2863
     48  CB        79.9180   19.4770   24.2340 C.3   106  SER106      0.2116
     49  OG        79.4370   19.9810   22.9990 O.3   106  SER106     -0.2180
     50  N         87.1970   15.0470   23.6030 N.3   215  SER215     -0.1202
     51  CA        85.8050   15.3600   23.8610 C.3   215  SER215      0.2020
     52  C         85.5950   15.6500   25.3380 C.2   215  SER215      0.2619
     53  O         85.8210   14.7880   26.1880 O.2   215  SER215     -0.2717
     54  CB        84.9160   14.2030   23.4050 C.3   215  SER215      0.2103
     55  OG        83.5660   14.6170   23.3160 O.3   215  SER215     -0.2182
     56  N         85.1670   16.8700   25.6450 N.am  216  LYS216     -0.1965
     57  CA        85.0160   17.2750   27.0330 C.3   216  LYS216      0.1728
     58  C         84.0360   18.4280   27.1750 C.2   216  LYS216      0.2616
     59  O         83.2720   18.6990   26.2640 O.2   216  LYS216     -0.2715
     60  CB        86.3750   17.6470   27.6090 C.3   216  LYS216      0.0311
     61  CG        87.1730   18.5570   26.7180 C.3   216  LYS216      0.0038
     62  CD        88.6550   18.4500   27.0380 C.3   216  LYS216      0.0206
     63  CE        89.4520   19.4800   26.2630 C.3   216  LYS216      0.1093
     64  NZ        90.9230   19.2240   26.3700 N.3   216  LYS216     -0.1314
     65  N         84.0590   19.1030   28.3210 N.am  217  GLY217     -0.1955
     66  CA        83.0720   20.1320   28.6030 C.3   217  GLY217      0.1869
     67  C         83.5790   21.2470   29.4930 C.2   217  GLY217      0.2309
     68  O         84.5370   21.0670   30.2450 O.2   217  GLY217     -0.2863
     69  N         72.3130   24.8460   36.2580 N.3   236  VAL236     -0.1231
     70  CA        72.8260   24.4880   34.9360 C.3   236  VAL236      0.1692
     71  C         71.9530   23.4280   34.2600 C.2   236  VAL236      0.2591
     72  O         71.6360   23.5300   33.0740 O.2   236  VAL236     -0.2718
     73  CB        74.2900   24.0230   35.0060 C.3   236  VAL236      0.0266
     74  CG1       74.7440   23.4330   33.6660 C.3   236  VAL236      0.0020
     75  CG2       75.1870   25.1850   35.4250 C.3   236  VAL236      0.0020
     76  N         71.5560   22.4130   35.0210 N.am  237  LEU237     -0.1980
     77  CA        70.6840   21.3640   34.4900 C.3   237  LEU237      0.1596
     78  C         69.3210   21.9040   34.0610 C.2   237  LEU237      0.2287
     79  O         68.8170   21.5300   33.0060 O.2   237  LEU237     -0.2864
     80  CB        70.5020   20.2270   35.5000 C.3   237  LEU237      0.0297
     81  CG        71.7270   19.4000   35.9050 C.3   237  LEU237      0.0022
     82  CD1       71.3020   18.3100   36.8660 C.3   237  LEU237      0.0001
     83  CD2       72.4060   18.7910   34.7090 C.3   237  LEU237      0.0001
     84  N         69.7900   23.8680   30.8840 N.3   240  SER240     -0.1217
     85  CA        70.0150   22.9480   29.7840 C.3   240  SER240      0.1889
     86  C         68.6850   22.3670   29.3040 C.2   240  SER240      0.2288
     87  O         68.3830   22.4060   28.1210 O.2   240  SER240     -0.2866
     88  CB        70.9830   21.8420   30.1930 C.3   240  SER240      0.2089
     89  OG        70.9230   20.7610   29.2770 O.3   240  SER240     -0.2183
     90  N         70.5090   27.0690   27.2660 N.3   245  LEU245     -0.1231
     91  CA        71.8870   26.9770   26.8300 C.3   245  LEU245      0.1693
     92  C         71.9850   26.9810   25.2980 C.2   245  LEU245      0.2592
     93  O         72.8840   27.6050   24.7300 O.2   245  LEU245     -0.2718
     94  CB        72.5700   25.7440   27.4190 C.3   245  LEU245      0.0284
     95  CG        72.5650   25.6940   28.9480 C.3   245  LEU245      0.0019
     96  CD1       73.4580   24.5830   29.4500 C.3   245  LEU245      0.0001
     97  CD2       73.0000   27.0350   29.5390 C.3   245  LEU245      0.0001
     98  N         71.0570   26.2950   24.6320 N.am  246  ASP246     -0.1974
     99  CA        71.0450   26.2520   23.1670 C.3   246  ASP246      0.1709
    100  C         70.7790   27.6400   22.6030 C.2   246  ASP246      0.2293
    101  O         71.4110   28.0450   21.6300 O.2   246  ASP246     -0.2864
    102  CB        69.9960   25.2630   22.6370 C.3   246  ASP246      0.1436
    103  CG        70.3330   23.8150   22.9600 C.2   246  ASP246      0.3671
    104  OD1       71.5330   23.4890   23.0800 O.co2 246  ASP246     -0.2456
    105  OD2       69.3950   22.9950   23.0840 O.co2 246  ASP246     -0.2456
@<TRIPOS>BOND
     1   101   100    2
     2   100    99    1
     3   102   103    1
     4   102    99    1
     5   103   104   ar
     6   103   105   ar
     7    49    48    1
     8    99    98    1
     9    55    54    1
    10    54    51    1
    11    47    46    2
    12    50    51    1
    13    51    52    1
    14    46    45    1
    15    48    45    1
    16    42    41    1
    17    42    43    1
    18    98    92   am
    19    93    92    2
    20    45    44    1
    21    41    40    1
    22    92    91    1
    23    52    56   am
    24    52    53    2
    25    44    38   am
    26    56    57    1
    27    63    64    1
    28    63    62    1
    29    59    58    2
    30    40    37    1
    31    38    37    1
    32    38    39    2
    33    61    62    1
    34    61    60    1
    35    91    90    1
    36    91    94    1
    37    37    36    1
    38    57    58    1
    39    57    60    1
    40    58    65   am
    41    94    95    1
    42    28    27    2
    43    87    86    2
    44    65    66    1
    45    36    27   am
    46    66    67    1
    47    27    26    1
    48    95    96    1
    49    95    97    1
    50    89    88    1
    51    86    85    1
    52    67    68    2
    53    33    31   ar
    54    33    35   ar
    55    31    30   ar
    56    85    88    1
    57    85    84    1
    58    26    29    1
    59    26    25    1
    60    35    34   ar
    61    22    23    1
    62    22    19    1
    63    30    29    1
    64    30    32   ar
    65    25    20   am
    66    23    24    1
    67    21    20    2
    68    20    19    1
    69    19    18    1
    70    34    32   ar
    71     4     3    2
    72     1     2    1
    73    24    18    1
    74    18    11   am
    75    79    78    2
    76    72    71    2
    77     3     2    1
    78     2     5    1
    79     5     6    1
    80     5     7    1
    81     8     6    1
    82    74    73    1
    83    78    77    1
    84    11    12    2
    85    11    10    1
    86    71    70    1
    87    71    76   am
    88    77    76    1
    89    77    80    1
    90    83    81    1
    91    70    73    1
    92    70    69    1
    93    73    75    1
    94    13    10    1
    95    13    14    1
    96    10     9    1
    97    80    81    1
    98    81    82    1
    99    15    14    1
   100    15    16    1
   101    16    17    1
