@<TRIPOS>MOLECULE
tmp/3bbtB00.pdb
 157 144 0 0 0
SMALL
GASTEIGER

@<TRIPOS>ATOM
      1  N        -35.6500   64.7770  -14.4050 N.3    16  LEU16      -0.1231
      2  CA       -34.4150   64.0800  -14.0450 C.3    16  LEU16       0.1693
      3  C        -33.7450   63.4640  -15.2700 C.2    16  LEU16       0.2592
      4  O        -32.5170   63.3550  -15.3290 O.2    16  LEU16      -0.2718
      5  CB       -34.6840   62.9990  -12.9920 C.3    16  LEU16       0.0284
      6  CG       -35.1780   63.4260  -11.6050 C.3    16  LEU16       0.0019
      7  CD1      -35.5810   62.2050  -10.7970 C.3    16  LEU16       0.0001
      8  CD2      -34.1380   64.2510  -10.8480 C.3    16  LEU16       0.0001
      9  N        -34.5630   63.0610  -16.2400 N.am   17  GLY17      -0.1957
     10  CA       -34.0780   62.4830  -17.4910 C.3    17  GLY17       0.1869
     11  C        -35.2170   62.0540  -18.3960 C.2    17  GLY17       0.2309
     12  O        -36.3040   61.7240  -17.9190 O.2    17  GLY17      -0.2863
     13  N        -38.6780   60.9160  -17.1580 N.3    24  VAL24      -0.1245
     14  CA       -38.6570   60.6140  -15.7280 C.3    24  VAL24       0.1561
     15  C        -38.6160   61.9210  -14.9370 C.2    24  VAL24       0.2260
     16  O        -37.7060   62.7360  -15.1080 O.2    24  VAL24      -0.2867
     17  CB       -37.4410   59.7240  -15.3480 C.3    24  VAL24       0.0252
     18  CG1      -37.3950   59.4700  -13.8430 C.3    24  VAL24       0.0019
     19  CG2      -37.4750   58.4030  -16.1130 C.3    24  VAL24       0.0019
     20  N        -40.4470   59.0620   -7.8690 N.3    39  ALA39      -0.1245
     21  CA       -40.0790   59.3120   -9.2570 C.3    39  ALA39       0.1562
     22  C        -41.2540   58.9560  -10.1710 C.2    39  ALA39       0.2260
     23  O        -41.8600   57.8900  -10.0340 O.2    39  ALA39      -0.2867
     24  CB       -38.8480   58.5090   -9.6290 C.3    39  ALA39       0.0290
     25  N        -42.4500   58.3200  -13.9920 N.3    41  LYS41      -0.1245
     26  CA       -42.0930   58.0540  -15.3810 C.3    41  LYS41       0.1561
     27  C        -43.3140   58.1300  -16.2990 C.2    41  LYS41       0.2260
     28  O        -44.1170   57.1970  -16.3540 O.2    41  LYS41      -0.2867
     29  CB       -41.3860   56.7020  -15.5220 C.3    41  LYS41       0.0271
     30  CG       -40.7130   56.4950  -16.8740 C.3    41  LYS41       0.0035
     31  CD       -40.1820   55.0810  -17.0290 C.3    41  LYS41       0.0206
     32  CE       -39.5650   54.8650  -18.4040 C.3    41  LYS41       0.1093
     33  NZ       -38.2550   55.5560  -18.5670 N.3    41  LYS41      -0.1314
     34  N        -45.7370   43.3340  -12.5070 N.3    59  MET59      -0.1245
     35  CA       -44.5600   44.1620  -12.2540 C.3    59  MET59       0.1570
     36  C        -44.5740   44.6650  -10.8170 C.2    59  MET59       0.2261
     37  O        -43.5210   44.8560  -10.2080 O.2    59  MET59      -0.2867
     38  CB       -44.5170   45.3420  -13.2240 C.3    59  MET59       0.0387
     39  CG       -44.4750   44.9310  -14.6850 C.3    59  MET59       0.0595
     40  SD       -42.8110   44.7160  -15.3220 S.3    59  MET59      -0.1393
     41  CE       -42.4730   46.4000  -15.8350 C.3    59  MET59       0.0692
     42  N        -36.2760   47.5070   -8.1420 N.3    68  VAL68      -0.1245
     43  CA       -37.1480   48.6170   -7.8160 C.3    68  VAL68       0.1561
     44  C        -38.5550   48.1280   -8.0850 C.2    68  VAL68       0.2260
     45  O        -38.8330   47.5900   -9.1580 O.2    68  VAL68      -0.2867
     46  CB       -36.8070   49.8760   -8.6440 C.3    68  VAL68       0.0252
     47  CG1      -37.9970   50.8250   -8.7350 C.3    68  VAL68       0.0019
     48  CG2      -35.5930   50.5850   -8.0480 C.3    68  VAL68       0.0019
     49  N        -42.7200   48.6480   -8.4680 N.3    70  LEU70      -0.1245
     50  CA       -43.7410   49.5970   -8.9110 C.3    70  LEU70       0.1561
     51  C        -44.7270   49.8520   -7.7780 C.2    70  LEU70       0.2260
     52  O        -45.4580   48.9490   -7.3740 O.2    70  LEU70      -0.2867
     53  CB       -44.4750   49.0590  -10.1510 C.3    70  LEU70       0.0270
     54  CG       -45.5070   49.9380  -10.8820 C.3    70  LEU70       0.0019
     55  CD1      -44.8910   51.2260  -11.4350 C.3    70  LEU70       0.0001
     56  CD2      -46.2040   49.1650  -11.9990 C.3    70  LEU70       0.0001
     57  N        -45.9150   55.6770  -14.5440 N.3    81  LEU81      -0.1245
     58  CA       -45.3580   54.6950  -13.6120 C.3    81  LEU81       0.1561
     59  C        -44.7530   55.4150  -12.4130 C.2    81  LEU81       0.2260
     60  O        -44.0370   56.4020  -12.5790 O.2    81  LEU81      -0.2867
     61  CB       -44.2980   53.8440  -14.3140 C.3    81  LEU81       0.0270
     62  CG       -44.7130   52.5520  -15.0290 C.3    81  LEU81       0.0019
     63  CD1      -45.9720   52.6870  -15.8820 C.3    81  LEU81       0.0001
     64  CD2      -43.5560   52.0250  -15.8690 C.3    81  LEU81       0.0001
     65  N        -42.5830   55.0790   -8.7540 N.3    83  THR83      -0.1203
     66  CA       -41.6870   54.3500   -7.8580 C.3    83  THR83       0.1994
     67  C        -41.0700   55.3160   -6.8540 C.2    83  THR83       0.2618
     68  O        -41.0190   56.5250   -7.1010 O.2    83  THR83      -0.2717
     69  CB       -40.5520   53.6670   -8.6330 C.3    83  THR83       0.1784
     70  OG1      -39.8590   54.6410   -9.4190 O.3    83  THR83      -0.2211
     71  CG2      -41.0970   52.5880   -9.5490 C.3    83  THR83       0.0376
     72  N        -40.6010   54.7830   -5.7250 N.am   84  GLN84      -0.1965
     73  CA       -39.9250   55.5980   -4.7170 C.3    84  GLN84       0.1733
     74  C        -38.6460   56.2030   -5.2830 C.2    84  GLN84       0.2616
     75  O        -37.9340   55.5640   -6.0620 O.2    84  GLN84      -0.2715
     76  CB       -39.6220   54.7950   -3.4500 C.3    84  GLN84       0.0408
     77  CG       -39.1300   55.6590   -2.2830 C.3    84  GLN84       0.0908
     78  CD       -39.1000   54.9150   -0.9600 C.2    84  GLN84       0.2608
     79  OE1      -40.1460   54.6090   -0.3790 O.2    84  GLN84      -0.2717
     80  NE2      -37.8940   54.6330   -0.4670 N.am   84  GLN84      -0.0878
     81  N        -38.3770   57.4430   -4.8910 N.am   85  LEU85      -0.1963
     82  CA       -37.2260   58.1820   -5.3840 C.3    85  LEU85       0.1728
     83  C        -35.9260   57.6170   -4.8320 C.2    85  LEU85       0.2616
     84  O        -35.7590   57.4930   -3.6170 O.2    85  LEU85      -0.2715
     85  CB       -37.3490   59.6640   -5.0150 C.3    85  LEU85       0.0311
     86  CG       -36.3450   60.6400   -5.6280 C.3    85  LEU85       0.0022
     87  CD1      -36.7260   60.9680   -7.0610 C.3    85  LEU85       0.0001
     88  CD2      -36.2670   61.9030   -4.7920 C.3    85  LEU85       0.0001
     89  N        -35.0150   57.2670   -5.7320 N.am   86  MET86      -0.1977
     90  CA       -33.6680   56.8830   -5.3320 C.3    86  MET86       0.1605
     91  C        -32.7960   58.1370   -5.2660 C.2    86  MET86       0.2287
     92  O        -32.6350   58.8370   -6.2730 O.2    86  MET86      -0.2864
     93  CB       -33.0850   55.8280   -6.2760 C.3    86  MET86       0.0413
     94  CG       -33.8620   54.5140   -6.2740 C.3    86  MET86       0.0598
     95  SD       -33.9980   53.7590   -4.6390 S.3    86  MET86      -0.1393
     96  CE       -35.5260   52.8370   -4.8090 C.3    86  MET86       0.0692
     97  N        -29.3810   58.3700   -7.4360 N.3    89  GLY89      -0.1210
     98  CA       -29.5340   58.2560   -8.8810 C.3    89  GLY89       0.1956
     99  C        -29.0720   56.9330   -9.4470 C.2    89  GLY89       0.2612
    100  O        -28.9160   55.9550   -8.7150 O.2    89  GLY89      -0.2717
    101  N        -28.8550   56.9060  -10.7580 N.am   90  CYS90      -0.1970
    102  CA       -28.3820   55.7020  -11.4320 C.3    90  CYS90       0.1712
    103  C        -26.8990   55.4430  -11.1610 C.2    90  CYS90       0.2296
    104  O        -26.1120   56.3800  -10.9790 O.2    90  CYS90      -0.2864
    105  CB       -28.6710   55.7610  -12.9350 C.3    90  CYS90       0.0983
    106  SG       -27.8930   57.1220  -13.8180 S.3    90  CYS90      -0.0798
    107  N        -23.9610   57.3560  -13.2180 N.3    93  GLU93      -0.1245
    108  CA       -23.5180   58.6900  -12.7940 C.3    93  GLU93       0.1567
    109  C        -22.8280   58.6480  -11.4350 C.2    93  GLU93       0.2260
    110  O        -21.9460   59.4610  -11.1580 O.2    93  GLU93      -0.2867
    111  CB       -24.6870   59.6780  -12.7250 C.3    93  GLU93       0.0388
    112  CG       -25.5770   59.7390  -13.9570 C.3    93  GLU93       0.1160
    113  CD       -24.9530   60.4650  -15.1360 C.2    93  GLU93       0.3649
    114  OE1      -23.9720   61.2260  -14.9500 O.co2  93  GLU93      -0.2457
    115  OE2      -25.4640   60.2810  -16.2620 O.co2  93  GLU93      -0.2457
    116  N        -30.1460   51.4790  -10.1190 N.3   137  LEU137     -0.1245
    117  CA       -30.2650   52.6510   -9.2450 C.3   137  LEU137      0.1561
    118  C        -29.5660   52.4510   -7.8990 C.2   137  LEU137      0.2260
    119  O        -29.3530   51.3170   -7.4680 O.2   137  LEU137     -0.2867
    120  CB       -31.7350   53.0320   -9.0380 C.3   137  LEU137      0.0270
    121  CG       -32.5490   53.4750  -10.2620 C.3   137  LEU137      0.0019
    122  CD1      -33.9850   53.7510   -9.8640 C.3   137  LEU137      0.0001
    123  CD2      -31.9400   54.6950  -10.9510 C.3   137  LEU137      0.0001
    124  N        -33.7730   48.6830  -12.3980 N.3   147  THR147     -0.1203
    125  CA       -35.0160   49.2560  -12.9390 C.3   147  THR147      0.1994
    126  C        -35.2550   48.9160  -14.4040 C.2   147  THR147      0.2618
    127  O        -34.3610   48.4100  -15.0880 O.2   147  THR147     -0.2717
    128  CB       -35.0560   50.7940  -12.8320 C.3   147  THR147      0.1784
    129  OG1      -33.7250   51.3220  -12.8610 O.3   147  THR147     -0.2211
    130  CG2      -35.7200   51.2090  -11.5660 C.3   147  THR147      0.0376
    131  N        -36.4750   49.2170  -14.8600 N.am  148  ASP148     -0.1959
    132  CA       -36.8880   49.1460  -16.2700 C.3   148  ASP148      0.1840
    133  C        -36.8750   47.7500  -16.8960 C.2   148  ASP148      0.2622
    134  O        -36.6910   47.6120  -18.1080 O.2   148  ASP148     -0.2715
    135  CB       -36.1040   50.1480  -17.1310 C.3   148  ASP148      0.1450
    136  CG       -36.4240   51.5900  -16.7810 C.2   148  ASP148      0.3671
    137  OD1      -37.2480   51.8160  -15.8700 O.co2 148  ASP148     -0.2456
    138  OD2      -35.8500   52.5010  -17.4180 O.co2 148  ASP148     -0.2456
    139  N        -37.0900   46.7270  -16.0720 N.am  149  PHE149     -0.1974
    140  CA       -37.1930   45.3550  -16.5660 C.3   149  PHE149      0.1639
    141  C        -38.5120   45.1070  -17.3060 C.2   149  PHE149      0.2290
    142  O        -39.5850   45.4830  -16.8260 O.2   149  PHE149     -0.2864
    143  CB       -36.9820   44.3260  -15.4410 C.3   149  PHE149      0.0560
    144  CG       -37.6600   44.6760  -14.1420 C.ar  149  PHE149     -0.0200
    145  CD1      -38.9830   44.3110  -13.9090 C.ar  149  PHE149     -0.0042
    146  CD2      -36.9670   45.3530  -13.1420 C.ar  149  PHE149     -0.0042
    147  CE1      -39.6120   44.6300  -12.7090 C.ar  149  PHE149     -0.0003
    148  CE2      -37.5880   45.6740  -11.9350 C.ar  149  PHE149     -0.0003
    149  CZ       -38.9120   45.3070  -11.7190 C.ar  149  PHE149     -0.0000
    150  N        -39.9920   46.4480  -19.9600 N.3   151  LEU151     -0.1245
    151  CA       -40.7700   47.6700  -20.1320 C.3   151  LEU151      0.1561
    152  C        -41.5420   47.6630  -21.4460 C.2   151  LEU151      0.2260
    153  O        -42.5030   48.4200  -21.6110 O.2   151  LEU151     -0.2867
    154  CB       -39.8600   48.8990  -20.0510 C.3   151  LEU151      0.0270
    155  CG       -40.4920   50.2090  -19.5680 C.3   151  LEU151      0.0019
    156  CD1      -40.8300   50.1400  -18.0810 C.3   151  LEU151      0.0001
    157  CD2      -39.5680   51.3820  -19.8470 C.3   151  LEU151      0.0001
@<TRIPOS>BOND
     1   153   152    2
     2   152   151    1
     3   151   154    1
     4   151   150    1
     5   154   155    1
     6   157   155    1
     7   155   156    1
     8    33    32    1
     9    32    31    1
    10    11    12    2
    11    11    10    1
    12   134   133    2
    13    10     9    1
    14   138   136   ar
    15   141   142    2
    16   141   140    1
    17    13    14    1
    18   135   136    1
    19   135   132    1
    20    31    30    1
    21   133   132    1
    22   133   139   am
    23    30    29    1
    24   136   137   ar
    25   140   139    1
    26   140   143    1
    27    28    27    2
    28    27    26    1
    29   132   131    1
    30   115   113   ar
    31     9     3   am
    32    19    17    1
    33    63    62    1
    34    64    62    1
    35    41    40    1
    36    14    17    1
    37    14    15    1
    38    29    26    1
    39   143   144    1
    40    26    25    1
    41    17    18    1
    42     4     3    2
    43    40    39    1
    44     3     2    1
    45   113   114   ar
    46   113   112    1
    47    16    15    2
    48   127   126    2
    49    62    61    1
    50   131   126   am
    51    39    38    1
    52    57    58    1
    53     1     2    1
    54   126   125    1
    55    61    58    1
    56   144   145   ar
    57   144   146   ar
    58     2     5    1
    59   112   111    1
    60   145   147   ar
    61   106   105    1
    62    58    59    1
    63    38    35    1
    64   107   108    1
    65   146   148   ar
    66     5     6    1
    67   125   128    1
    68   125   124    1
    69   105   102    1
    70   129   128    1
    71   128   130    1
    72   108   111    1
    73   108   109    1
    74   147   149   ar
    75    60    59    2
    76    34    35    1
    77    35    36    1
    78    56    54    1
    79   148   149   ar
    80     6     8    1
    81     6     7    1
    82   109   110    2
    83    55    54    1
    84   102   103    1
    85   102   101    1
    86   103   104    2
    87   123   121    1
    88    54    53    1
    89    36    37    2
    90   101    99   am
    91   121   122    1
    92   121   120    1
    93    22    23    2
    94    22    21    1
    95    53    50    1
    96   116   117    1
    97    24    21    1
    98    71    69    1
    99    99    98    1
   100    99   100    2
   101    70    69    1
   102    21    20    1
   103   117   120    1
   104   117   118    1
   105    45    44    2
   106    50    49    1
   107    50    51    1
   108    98    97    1
   109    65    66    1
   110    47    46    1
   111    46    48    1
   112    46    43    1
   113    69    66    1
   114    42    43    1
   115    44    43    1
   116   118   119    2
   117    66    67    1
   118    51    52    2
   119    68    67    2
   120    87    86    1
   121    67    72   am
   122    93    94    1
   123    93    90    1
   124    94    95    1
   125    92    91    2
   126    75    74    2
   127    89    90    1
   128    89    83   am
   129    72    73    1
   130    86    85    1
   131    86    88    1
   132    82    85    1
   133    82    81    1
   134    82    83    1
   135    90    91    1
   136    74    81   am
   137    74    73    1
   138    83    84    2
   139    96    95    1
   140    73    76    1
   141    76    77    1
   142    77    78    1
   143    78    80   am
   144    78    79    2
