@<TRIPOS>MOLECULE
tmp/3bc1A00.pdb
 191 187 0 0 0
SMALL
GASTEIGER

@<TRIPOS>ATOM
      1  N          4.4960   11.0840  -23.5060 N.3    15  SER15      -0.1202
      2  CA         4.2330    9.9820  -24.4280 C.3    15  SER15       0.2020
      3  C          3.5140   10.5160  -25.6640 C.2    15  SER15       0.2619
      4  O          2.5920   11.3170  -25.5510 O.2    15  SER15      -0.2717
      5  CB         3.3850    8.8930  -23.7720 C.3    15  SER15       0.2103
      6  OG         3.2030    7.7970  -24.6590 O.3    15  SER15      -0.2182
      7  N          3.9750   10.0920  -26.8370 N.am   16  GLY16      -0.1942
      8  CA         3.3250   10.4080  -28.1020 C.3    16  GLY16       0.2014
      9  C          3.8130   11.6540  -28.8260 C.2    16  GLY16       0.2639
     10  O          3.4140   11.8920  -29.9650 O.2    16  GLY16      -0.2714
     11  N          4.6630   12.4560  -28.1860 N.am   17  VAL17      -0.1963
     12  CA         5.1030   13.7370  -28.7780 C.3    17  VAL17       0.1727
     13  C          6.0130   13.5820  -29.9940 C.2    17  VAL17       0.2617
     14  O          6.0850   14.4830  -30.8360 O.2    17  VAL17      -0.2715
     15  CB         5.8080   14.6530  -27.7420 C.3    17  VAL17       0.0290
     16  CG1        4.8710   14.9690  -26.5810 C.3    17  VAL17       0.0023
     17  CG2        7.1100   14.0280  -27.2580 C.3    17  VAL17       0.0023
     18  N          6.7120   12.4490  -30.0810 N.am   18  GLY18      -0.1940
     19  CA         7.5360   12.1330  -31.2590 C.3    18  GLY18       0.2014
     20  C          9.0310   11.9540  -31.0060 C.2    18  GLY18       0.2639
     21  O          9.8370   12.1210  -31.9200 O.2    18  GLY18      -0.2714
     22  N          9.4070   11.5920  -29.7820 N.am   19  LYS19      -0.1963
     23  CA        10.8250   11.4380  -29.4230 C.3    19  LYS19       0.1728
     24  C         11.5110   10.3510  -30.2540 C.2    19  LYS19       0.2617
     25  O         12.5940   10.5610  -30.8120 O.2    19  LYS19      -0.2715
     26  CB        10.9610   11.1120  -27.9340 C.3    19  LYS19       0.0311
     27  CG        10.3590   12.1770  -27.0150 C.3    19  LYS19       0.0038
     28  CD        10.3600   11.7610  -25.5470 C.3    19  LYS19       0.0206
     29  CE         9.5040   10.5490  -25.2580 C.3    19  LYS19       0.1093
     30  NZ         8.0710   10.7940  -25.4400 N.3    19  LYS19      -0.1314
     31  N         10.8670    9.1910  -30.3440 N.am   20  THR20      -0.1937
     32  CA        11.4140    8.0770  -31.1090 C.3    20  THR20       0.2028
     33  C         11.5110    8.4400  -32.5900 C.2    20  THR20       0.2642
     34  O         12.5450    8.2100  -33.2180 O.2    20  THR20      -0.2714
     35  CB        10.5610    6.8110  -30.9430 C.3    20  THR20       0.1808
     36  OG1       10.5450    6.4300  -29.5580 O.3    20  THR20      -0.2208
     37  CG2       11.1150    5.6780  -31.7840 C.3    20  THR20       0.0379
     38  N         10.4390    9.0180  -33.1260 N.am   21  SER21      -0.1949
     39  CA        10.3710    9.4080  -34.5450 C.3    21  SER21       0.1924
     40  C         11.4310   10.4520  -34.9100 C.2    21  SER21       0.2314
     41  O         12.1020   10.3480  -35.9450 O.2    21  SER21      -0.2863
     42  CB         8.9680    9.9130  -34.8960 C.3    21  SER21       0.2116
     43  OG         7.9880    8.9040  -34.6710 O.3    21  SER21      -0.2180
     44  N         10.7630    7.2150  -41.3260 N.3    31  PHE31      -0.1227
     45  CA         9.6220    7.5390  -40.4680 C.3    31  PHE31       0.1736
     46  C          8.5490    6.4450  -40.5480 C.2    31  PHE31       0.2595
     47  O          8.2330    5.9670  -41.6390 O.2    31  PHE31      -0.2718
     48  CB         9.0390    8.8890  -40.8940 C.3    31  PHE31       0.0547
     49  CG         7.7760    9.2730  -40.1670 C.ar   31  PHE31      -0.0202
     50  CD1        7.8120    9.6880  -38.8420 C.ar   31  PHE31      -0.0042
     51  CD2        6.5530    9.2420  -40.8160 C.ar   31  PHE31      -0.0042
     52  CE1        6.6460   10.0510  -38.1740 C.ar   31  PHE31      -0.0003
     53  CE2        5.3910    9.6120  -40.1620 C.ar   31  PHE31      -0.0003
     54  CZ         5.4340   10.0110  -38.8380 C.ar   31  PHE31      -0.0000
     55  N          8.0170    6.0490  -39.3930 N.am   32  ASN32      -0.1960
     56  CA         6.9090    5.0810  -39.3060 C.3    32  ASN32       0.1819
     57  C          5.6630    5.7650  -38.7410 C.2    32  ASN32       0.2622
     58  O          5.7110    6.3740  -37.6700 O.2    32  ASN32      -0.2715
     59  CB         7.2920    3.8830  -38.4270 C.3    32  ASN32       0.1195
     60  CG         6.2810    2.7340  -38.5170 C.2    32  ASN32       0.2630
     61  OD1        5.1420    2.9160  -38.9490 O.2    32  ASN32      -0.2716
     62  ND2        6.6970    1.5480  -38.0930 N.am   32  ASN32      -0.0877
     63  N          4.5540    5.6550  -39.4710 N.am   33  SER33      -0.1936
     64  CA         3.2910    6.2870  -39.0930 C.3    33  SER33       0.2055
     65  C          2.6080    5.6160  -37.8970 C.2    33  SER33       0.2643
     66  O          1.8380    6.2620  -37.1810 O.2    33  SER33      -0.2714
     67  CB         2.3210    6.2730  -40.2860 C.3    33  SER33       0.2130
     68  OG         2.8640    6.9870  -41.3830 O.3    33  SER33      -0.2179
     69  N          2.8740    4.3290  -37.6940 N.am   34  LYS34      -0.1963
     70  CA         2.2220    3.5700  -36.6310 C.3    34  LYS34       0.1728
     71  C          2.8740    3.8780  -35.2910 C.2    34  LYS34       0.2616
     72  O          4.0970    3.8180  -35.1660 O.2    34  LYS34      -0.2715
     73  CB         2.3000    2.0700  -36.9070 C.3    34  LYS34       0.0311
     74  CG         1.5040    1.2110  -35.9150 C.3    34  LYS34       0.0038
     75  CD         1.6790   -0.2670  -36.2130 C.3    34  LYS34       0.0206
     76  CE         1.1740   -1.1380  -35.0710 C.3    34  LYS34       0.1093
     77  NZ         1.2220   -2.5820  -35.4410 N.3    34  LYS34      -0.1314
     78  N          2.0510    4.1870  -34.2930 N.am   35  PHE35      -0.1960
     79  CA         2.5400    4.4630  -32.9400 C.3    35  PHE35       0.1771
     80  C          3.0230    3.1760  -32.2700 C.2    35  PHE35       0.2619
     81  O          2.2170    2.3080  -31.9220 O.2    35  PHE35      -0.2715
     82  CB         1.4190    5.1140  -32.1190 C.3    35  PHE35       0.0574
     83  CG         1.8280    5.5780  -30.7350 C.ar   35  PHE35      -0.0200
     84  CD1        3.1610    5.7370  -30.3690 C.ar   35  PHE35      -0.0042
     85  CD2        0.8480    5.9090  -29.8050 C.ar   35  PHE35      -0.0042
     86  CE1        3.5030    6.1780  -29.1010 C.ar   35  PHE35      -0.0003
     87  CE2        1.1950    6.3600  -28.5300 C.ar   35  PHE35      -0.0003
     88  CZ         2.5240    6.4920  -28.1880 C.ar   35  PHE35      -0.0000
     89  N          4.3410    3.0560  -32.1240 N.am   36  ILE36      -0.1963
     90  CA         4.9510    1.9690  -31.3620 C.3    36  ILE36       0.1727
     91  C          5.6180    2.5870  -30.1290 C.2    36  ILE36       0.2617
     92  O          6.7320    3.1130  -30.2020 O.2    36  ILE36      -0.2715
     93  CB         5.9780    1.1610  -32.1920 C.3    36  ILE36       0.0290
     94  CG1        5.3850    0.7040  -33.5320 C.3    36  ILE36       0.0022
     95  CG2        6.4330   -0.0520  -31.4090 C.3    36  ILE36       0.0023
     96  CD1        6.4280    0.1550  -34.5050 C.3    36  ILE36       0.0001
     97  N          4.9120    2.5370  -29.0050 N.am   37  THR37      -0.1937
     98  CA         5.3590    3.2010  -27.7820 C.3    37  THR37       0.2028
     99  C          6.6190    2.5300  -27.2310 C.2    37  THR37       0.2642
    100  O          6.7890    1.3090  -27.3210 O.2    37  THR37      -0.2714
    101  CB         4.2350    3.2660  -26.7130 C.3    37  THR37       0.1808
    102  OG1        4.6030    4.1770  -25.6620 O.3    37  THR37      -0.2208
    103  CG2        3.9270    1.8780  -26.1360 C.3    37  THR37       0.0379
    104  N          7.5070    3.3460  -26.6780 N.am   38  THR38      -0.1950
    105  CA         8.8240    2.8900  -26.2760 C.3    38  THR38       0.1897
    106  C          8.7250    2.1320  -24.9560 C.2    38  THR38       0.2313
    107  O          8.0950    2.6030  -24.0040 O.2    38  THR38      -0.2863
    108  CB         9.8150    4.0720  -26.1500 C.3    38  THR38       0.1794
    109  OG1        9.9770    4.7050  -27.4340 O.3    38  THR38      -0.2208
    110  CG2       11.1670    3.6030  -25.6340 C.3    38  THR38       0.0378
    111  N         16.7220    7.4990  -25.9510 N.3    71  ASP71      -0.1225
    112  CA        15.3270    7.6520  -26.2650 C.3    71  ASP71       0.1805
    113  C         14.5080    7.1420  -25.0860 C.2    71  ASP71       0.2598
    114  O         14.4010    5.9240  -24.8840 O.2    71  ASP71      -0.2718
    115  CB        15.0250    6.8460  -27.5340 C.3    71  ASP71       0.1424
    116  CG        13.6070    7.0110  -28.0110 C.2    71  ASP71       0.3668
    117  OD1       12.9240    7.9420  -27.5350 O.co2  71  ASP71      -0.2456
    118  OD2       13.1800    6.1940  -28.8660 O.co2  71  ASP71      -0.2456
    119  N         13.9340    8.0620  -24.3100 N.am   72  THR72      -0.1939
    120  CA        13.1990    7.6890  -23.1040 C.3    72  THR72       0.2028
    121  C         11.7090    7.5530  -23.3690 C.2    72  THR72       0.2642
    122  O         11.1620    8.2410  -24.2230 O.2    72  THR72      -0.2714
    123  CB        13.4080    8.7160  -21.9560 C.3    72  THR72       0.1808
    124  OG1       12.9050   10.0060  -22.3330 O.3    72  THR72      -0.2208
    125  CG2       14.8880    8.8240  -21.5840 C.3    72  THR72       0.0379
    126  N         11.0510    6.6700  -22.6210 N.am   73  ALA73      -0.1963
    127  CA         9.5910    6.5600  -22.6720 C.3    73  ALA73       0.1728
    128  C          8.9450    7.6890  -21.8670 C.2    73  ALA73       0.2617
    129  O          9.4690    8.1050  -20.8260 O.2    73  ALA73      -0.2715
    130  CB         9.1260    5.1990  -22.1450 C.3    73  ALA73       0.0334
    131  N          7.8080    8.1770  -22.3600 N.am   74  GLY74      -0.1940
    132  CA         7.0910    9.2860  -21.7460 C.3    74  GLY74       0.2014
    133  C          6.0630    8.8880  -20.7010 C.2    74  GLY74       0.2638
    134  O          5.6980    9.7030  -19.8550 O.2    74  GLY74      -0.2714
    135  N          5.5760    7.6510  -20.7600 N.am   75  LEU75      -0.1977
    136  CA         4.5700    7.1880  -19.8120 C.3    75  LEU75       0.1596
    137  C          5.1460    7.0980  -18.3940 C.2    75  LEU75       0.2287
    138  O          6.2730    6.6340  -18.1980 O.2    75  LEU75      -0.2864
    139  CB         4.0150    5.8260  -20.2210 C.3    75  LEU75       0.0297
    140  CG         3.1250    5.7860  -21.4550 C.3    75  LEU75       0.0022
    141  CD1        2.6440    4.3610  -21.6530 C.3    75  LEU75       0.0001
    142  CD2        1.9560    6.7530  -21.3370 C.3    75  LEU75       0.0001
    143  N          7.3050   19.5280  -31.9090 N.3   130  ASN130     -0.1225
    144  CA         7.2420   18.5370  -32.9830 C.3   130  ASN130      0.1785
    145  C          5.8630   18.4130  -33.6500 C.2   130  ASN130      0.2597
    146  O          4.8570   18.9050  -33.1280 O.2   130  ASN130     -0.2718
    147  CB         7.7230   17.1780  -32.4520 C.3   130  ASN130      0.1169
    148  CG         8.0310   16.1820  -33.5590 C.2   130  ASN130      0.2627
    149  OD1        8.7100   16.5010  -34.5480 O.2   130  ASN130     -0.2716
    150  ND2        7.5160   14.9710  -33.4070 N.am  130  ASN130     -0.0877
    151  N          5.8520   17.7520  -34.8110 N.am  131  LYS131     -0.1980
    152  CA         4.6630   17.5260  -35.6450 C.3   131  LYS131      0.1596
    153  C          4.2290   18.8120  -36.3600 C.2   131  LYS131      0.2287
    154  O          3.0320   19.0700  -36.5310 O.2   131  LYS131     -0.2864
    155  CB         3.5110   16.9020  -34.8450 C.3   131  LYS131      0.0298
    156  CG         3.9340   15.7170  -33.9770 C.3   131  LYS131      0.0038
    157  CD         2.7730   14.7870  -33.6650 C.3   131  LYS131      0.0206
    158  CE         3.1990   13.7070  -32.6680 C.3   131  LYS131      0.1093
    159  NZ         2.0500   12.9080  -32.1490 N.3   131  LYS131     -0.1314
    160  N          4.3340   19.4650  -39.4110 N.3   133  ASP133     -0.1225
    161  CA         3.6150   19.1170  -40.6410 C.3   133  ASP133      0.1805
    162  C          2.0920   19.0010  -40.4650 C.2   133  ASP133      0.2597
    163  O          1.3640   18.9890  -41.4590 O.2   133  ASP133     -0.2718
    164  CB         4.1710   17.8240  -41.2660 C.3   133  ASP133      0.1424
    165  CG         4.0520   16.6240  -40.3430 C.2   133  ASP133      0.3668
    166  OD1        4.6990   16.6400  -39.2750 O.co2 133  ASP133     -0.2456
    167  OD2        3.3110   15.6720  -40.6760 O.co2 133  ASP133     -0.2456
    168  N          1.6080   18.9170  -39.2220 N.am  134  LEU134     -0.1979
    169  CA         0.1790   18.7450  -38.9580 C.3   134  LEU134      0.1596
    170  C         -0.5030   20.0750  -38.6140 C.2   134  LEU134      0.2287
    171  O         -1.1770   20.1890  -37.5930 O.2   134  LEU134     -0.2864
    172  CB        -0.0330   17.7270  -37.8280 C.3   134  LEU134      0.0297
    173  CG         0.4150   16.2910  -38.1050 C.3   134  LEU134      0.0022
    174  CD1        0.0400   15.4010  -36.9290 C.3   134  LEU134      0.0001
    175  CD2       -0.1920   15.7520  -39.4010 C.3   134  LEU134      0.0001
    176  N          9.5900   18.4370  -37.6300 N.3   160  SER160     -0.1202
    177  CA         8.7550   17.3510  -38.1230 C.3   160  SER160      0.2020
    178  C          9.6120   16.1110  -38.2870 C.2   160  SER160      0.2619
    179  O         10.5240   16.1020  -39.1060 O.2   160  SER160     -0.2717
    180  CB         8.1240   17.7040  -39.4660 C.3   160  SER160      0.2103
    181  OG         7.4310   16.5770  -39.9940 O.3   160  SER160     -0.2182
    182  N          9.3210   15.0790  -37.5000 N.am  161  ALA161     -0.1965
    183  CA         9.9320   13.7660  -37.6850 C.3   161  ALA161      0.1728
    184  C          9.4190   13.0900  -38.9610 C.2   161  ALA161      0.2616
    185  O         10.0590   12.1800  -39.4750 O.2   161  ALA161     -0.2715
    186  CB         9.6670   12.8760  -36.4640 C.3   161  ALA161      0.0334
    187  N          8.2590   13.5260  -39.4560 N.am  162  ALA162     -0.1977
    188  CA         7.6980   12.9820  -40.6970 C.3   162  ALA162      0.1597
    189  C          8.5910   13.2940  -41.8970 C.2   162  ALA162      0.2287
    190  O          8.9520   12.4040  -42.6560 O.2   162  ALA162     -0.2864
    191  CB         6.2880   13.5180  -40.9290 C.3   162  ALA162      0.0319
@<TRIPOS>BOND
     1   190   189    2
     2   189   188    1
     3    47    46    2
     4   163   162    2
     5    68    67    1
     6    44    45    1
     7   164   161    1
     8   164   165    1
     9   191   188    1
    10    48    45    1
    11    48    49    1
    12    51    49   ar
    13    51    53   ar
    14   188   187    1
    15   167   165   ar
    16   161   162    1
    17   161   160    1
    18    46    45    1
    19    46    55   am
    20   162   168   am
    21   165   166   ar
    22    67    64    1
    23    49    50   ar
    24    53    54   ar
    25   181   180    1
    26   185   184    2
    27    63    64    1
    28    63    57   am
    29   180   177    1
    30   187   184   am
    31   175   173    1
    32    55    56    1
    33    56    57    1
    34    56    59    1
    35   168   169    1
    36   179   178    2
    37    64    65    1
    38   184   183    1
    39   169   170    1
    40   169   172    1
    41    61    60    2
    42    50    52   ar
    43    54    52   ar
    44    57    58    2
    45   170   171    2
    46    60    59    1
    47    60    62   am
    48   178   177    1
    49   178   182   am
    50   177   176    1
    51   173   172    1
    52   173   174    1
    53    65    69   am
    54    65    66    2
    55    69    70    1
    56   183   182    1
    57   183   186    1
    58    73    70    1
    59    73    74    1
    60    70    71    1
    61   154   153    2
    62   153   152    1
    63    75    74    1
    64    75    76    1
    65    41    40    2
    66   152   155    1
    67   152   151    1
    68    77    76    1
    69    71    72    2
    70    71    78   am
    71    40    39    1
    72    42    43    1
    73    42    39    1
    74   155   156    1
    75   151   145   am
    76   149   148    2
    77    39    38    1
    78    96    94    1
    79    78    79    1
    80   156   157    1
    81   157   158    1
    82   145   146    2
    83   145   144    1
    84   148   150   am
    85   148   147    1
    86    94    93    1
    87    34    33    2
    88    38    33   am
    89   144   147    1
    90   144   143    1
    91    79    80    1
    92    79    82    1
    93   158   159    1
    94    33    32    1
    95    80    89   am
    96    80    81    2
    97    93    95    1
    98    93    90    1
    99    89    90    1
   100    82    83    1
   101    21    20    2
   102    37    35    1
   103    90    91    1
   104    19    20    1
   105    19    18    1
   106    32    35    1
   107    32    31    1
   108    20    22   am
   109    35    36    1
   110    14    13    2
   111    25    24    2
   112    83    84   ar
   113    83    85   ar
   114    84    86   ar
   115    31    24   am
   116    24    23    1
   117    92    91    2
   118    91    97   am
   119    18    13   am
   120    13    12    1
   121    10     9    2
   122    85    87   ar
   123    22    23    1
   124    23    26    1
   125    86    88   ar
   126    97    98    1
   127   118   116   ar
   128     9    11   am
   129     9     8    1
   130    12    11    1
   131    12    15    1
   132    87    88   ar
   133     8     7    1
   134   116   117   ar
   135   116   115    1
   136    26    27    1
   137    98    99    1
   138    98   101    1
   139    15    17    1
   140    15    16    1
   141   115   112    1
   142   109   108    1
   143   100    99    2
   144    99   104   am
   145    27    28    1
   146     7     3   am
   147   101   103    1
   148   101   102    1
   149   104   105    1
   150   105   108    1
   151   105   106    1
   152   112   111    1
   153   112   113    1
   154   108   110    1
   155     3     4    2
   156     3     2    1
   157    28    29    1
   158    30    29    1
   159   113   114    2
   160   113   119   am
   161   106   107    2
   162     6     5    1
   163     2     5    1
   164     2     1    1
   165   119   120    1
   166   122   121    2
   167   121   120    1
   168   121   126   am
   169   120   123    1
   170   127   126    1
   171   127   130    1
   172   127   128    1
   173   131   128   am
   174   131   132    1
   175   124   123    1
   176   123   125    1
   177   128   129    2
   178   132   133    1
   179   141   140    1
   180   140   142    1
   181   140   139    1
   182   135   133   am
   183   135   136    1
   184   133   134    2
   185   139   136    1
   186   136   137    1
   187   137   138    2
