@<TRIPOS>MOLECULE
tmp/3bc3A00.pdb
 218 215 0 0 0
SMALL
GASTEIGER

@<TRIPOS>ATOM
      1  N        -28.1700   -1.9490    9.2370 N.3    18  ASN18      -0.1225
      2  CA       -27.4840   -1.6090    7.9980 C.3    18  ASN18       0.1785
      3  C        -27.3860   -0.0950    7.8130 C.2    18  ASN18       0.2597
      4  O        -28.3950    0.5990    7.7160 O.2    18  ASN18      -0.2718
      5  CB       -28.2110   -2.2260    6.7980 C.3    18  ASN18       0.1169
      6  CG       -27.2900   -2.4290    5.6050 C.2    18  ASN18       0.2627
      7  OD1      -26.6090   -1.5000    5.1640 O.2    18  ASN18      -0.2716
      8  ND2      -27.2660   -3.6490    5.0780 N.am   18  ASN18      -0.0877
      9  N        -26.1590    0.4080    7.7590 N.am   19  GLN19      -0.1965
     10  CA       -25.9470    1.8390    7.6060 C.3    19  GLN19       0.1733
     11  C        -26.1630    2.3220    6.1620 C.2    19  GLN19       0.2617
     12  O        -26.3220    3.5130    5.9170 O.2    19  GLN19      -0.2715
     13  CB       -24.5350    2.2040    8.0700 C.3    19  GLN19       0.0408
     14  CG       -23.4310    1.8150    7.1030 C.3    19  GLN19       0.0908
     15  CD       -22.0510    2.0720    7.6820 C.2    19  GLN19       0.2608
     16  OE1      -21.5150    1.2590    8.4330 O.2    19  GLN19      -0.2717
     17  NE2      -21.4800    3.2180    7.3470 N.am   19  GLN19      -0.0878
     18  N        -26.1620    1.3940    5.2140 N.am   20  GLY20      -0.1940
     19  CA       -26.3440    1.7700    3.8280 C.3    20  GLY20       0.2014
     20  C        -25.2000    2.6280    3.3170 C.2    20  GLY20       0.2639
     21  O        -24.1010    2.6160    3.8770 O.2    20  GLY20      -0.2714
     22  N        -25.4600    3.3810    2.2550 N.am   21  GLN21      -0.1963
     23  CA       -24.4490    4.2450    1.6580 C.3    21  GLN21       0.1733
     24  C        -24.3930    5.6030    2.3680 C.2    21  GLN21       0.2616
     25  O        -24.7770    6.6450    1.8280 O.2    21  GLN21      -0.2715
     26  CB       -24.7430    4.3960    0.1630 C.3    21  GLN21       0.0408
     27  CG       -24.9430    3.0330   -0.5010 C.3    21  GLN21       0.0908
     28  CD       -25.0630    3.1020   -2.0050 C.2    21  GLN21       0.2608
     29  OE1      -25.2720    4.1600   -2.5670 O.2    21  GLN21      -0.2717
     30  NE2      -24.9380    1.9530   -2.6630 N.am   21  GLN21      -0.0878
     31  N        -23.9070    5.5440    3.6010 N.am   22  CYS22      -0.1954
     32  CA       -23.7820    6.6990    4.4740 C.3    22  CYS22       0.1843
     33  C        -22.6730    6.4450    5.5170 C.2    22  CYS22       0.2626
     34  O        -22.6210    5.3800    6.1320 O.2    22  CYS22      -0.2714
     35  CB       -25.1350    6.9480    5.1610 C.3    22  CYS22       0.0997
     36  SG       -25.1250    8.0760    6.5910 S.3    22  CYS22      -0.0797
     37  N        -21.7840    7.4180    5.6830 N.am   23  GLY23      -0.1954
     38  CA       -20.6950    7.2750    6.6310 C.3    23  GLY23       0.1869
     39  C        -21.1320    7.4510    8.0730 C.2    23  GLY23       0.2309
     40  O        -20.5450    8.2370    8.8070 O.2    23  GLY23      -0.2863
     41  N        -20.0660    5.3120   12.8690 N.3    25  TRP25      -0.1241
     42  CA       -19.8000    5.7970   14.2180 C.3    25  TRP25       0.1605
     43  C        -21.1040    5.8630   15.0260 C.2    25  TRP25       0.2264
     44  O        -21.1210    5.6410   16.2350 O.2    25  TRP25      -0.2867
     45  CB       -19.1640    7.1900   14.1650 C.3    25  TRP25       0.0550
     46  CG       -19.9560    8.1540   13.3530 C.ar   25  TRP25       0.0003
     47  CD1      -19.8910    8.3330   11.9980 C.ar   25  TRP25       0.0946
     48  CD2      -20.9820    9.0320   13.8270 C.ar   25  TRP25       0.0152
     49  NE1      -20.8180    9.2670   11.6010 N.ar   25  TRP25      -0.2442
     50  CE2      -21.5010    9.7130   12.7040 C.ar   25  TRP25       0.0810
     51  CE3      -21.5190    9.3080   15.0930 C.ar   25  TRP25       0.0012
     52  CZ2      -22.5290   10.6560   12.8090 C.ar   25  TRP25       0.0191
     53  CZ3      -22.5440   10.2470   15.1970 C.ar   25  TRP25       0.0001
     54  CH2      -23.0370   10.9080   14.0610 C.ar   25  TRP25       0.0015
     55  N        -18.9480   17.5910   16.9230 N.3    60  GLY60      -0.1225
     56  CA       -17.8500   17.2620   16.0320 C.3    60  GLY60       0.1811
     57  C        -18.1440   16.2340   14.9550 C.2    60  GLY60       0.2280
     58  O        -17.2920   15.9920   14.0930 O.2    60  GLY60      -0.2866
     59  N        -19.9640   14.5250   11.5670 N.3    62  GLU62      -0.1245
     60  CA       -20.2510   15.0460   10.2360 C.3    62  GLU62       0.1567
     61  C        -21.2880   14.2210    9.4620 C.2    62  GLU62       0.2260
     62  O        -21.1500   14.0210    8.2490 O.2    62  GLU62      -0.2867
     63  CB       -18.9490   15.1100    9.4320 C.3    62  GLU62       0.0388
     64  CG       -17.8880   16.0200   10.0350 C.3    62  GLU62       0.1160
     65  CD       -18.1860   17.4940    9.8140 C.2    62  GLU62       0.3649
     66  OE1      -19.3480   17.8240    9.4940 O.co2  62  GLU62      -0.2457
     67  OE2      -17.2600   18.3210    9.9690 O.co2  62  GLU62      -0.2457
     68  N        -23.3250   11.7200    7.4660 N.3    64  CYS64      -0.1221
     69  CA       -22.9160   10.6480    6.5680 C.3    64  CYS64       0.1808
     70  C        -21.4760   10.8220    6.0720 C.2    64  CYS64       0.2601
     71  O        -20.9890   10.0230    5.2820 O.2    64  CYS64      -0.2717
     72  CB       -23.8730   10.5530    5.3760 C.3    64  CYS64       0.0970
     73  SG       -25.5220    9.9050    5.8070 S.3    64  CYS64      -0.0800
     74  N        -20.8090   11.8740    6.5350 N.am   65  ASN65      -0.1960
     75  CA       -19.4240   12.1110    6.1440 C.3    65  ASN65       0.1819
     76  C        -18.4460   11.7200    7.2560 C.2    65  ASN65       0.2622
     77  O        -17.2840   12.1010    7.2270 O.2    65  ASN65      -0.2715
     78  CB       -19.1880   13.5740    5.7590 C.3    65  ASN65       0.1195
     79  CG       -19.8070   13.9370    4.4230 C.2    65  ASN65       0.2630
     80  OD1      -19.8620   13.1160    3.5030 O.2    65  ASN65      -0.2716
     81  ND2      -20.2580   15.1790    4.3020 N.am   65  ASN65      -0.0877
     82  N        -18.9370   10.9660    8.2340 N.am   66  GLY66      -0.1940
     83  CA       -18.0780   10.5110    9.3120 C.3    66  GLY66       0.2014
     84  C        -18.3040   11.1090   10.6840 C.2    66  GLY66       0.2639
     85  O        -19.1060   12.0260   10.8560 O.2    66  GLY66      -0.2714
     86  N        -17.5730   10.5870   11.6640 N.am   67  GLY67      -0.1939
     87  CA       -17.6950   11.0670   13.0300 C.3    67  GLY67       0.2014
     88  C        -16.9960   10.1190   13.9830 C.2    67  GLY67       0.2639
     89  O        -16.2380    9.2480   13.5430 O.2    67  GLY67      -0.2714
     90  N        -17.2480   10.2860   15.2820 N.am   68  LEU68      -0.1963
     91  CA       -16.6510    9.4420   16.3140 C.3    68  LEU68       0.1728
     92  C        -17.7060    8.9350   17.3070 C.2    68  LEU68       0.2616
     93  O        -18.6830    9.6270   17.5910 O.2    68  LEU68      -0.2715
     94  CB       -15.5980   10.2250   17.1030 C.3    68  LEU68       0.0311
     95  CG       -14.4050   10.8540   16.3740 C.3    68  LEU68       0.0022
     96  CD1      -13.5480   11.6270   17.3800 C.3    68  LEU68       0.0001
     97  CD2      -13.5790    9.7750   15.7010 C.3    68  LEU68       0.0001
     98  N        -17.5070    7.7330   17.8360 N.am   69  MET69      -0.1963
     99  CA       -18.4490    7.2080   18.8140 C.3    69  MET69       0.1736
    100  C        -18.4590    8.1100   20.0630 C.2    69  MET69       0.2616
    101  O        -19.5150    8.3860   20.6360 O.2    69  MET69      -0.2715
    102  CB       -18.0860    5.7690   19.2060 C.3    69  MET69       0.0427
    103  CG       -18.4060    4.7140   18.1360 C.3    69  MET69       0.0599
    104  SD       -17.2080    4.6620   16.7710 S.3    69  MET69      -0.1393
    105  CE       -16.1100    3.3980   17.3770 C.3    69  MET69       0.0692
    106  N        -17.2790    8.5800   20.4590 N.am   70  ASP70      -0.1957
    107  CA       -17.1750    9.4480   21.6240 C.3    70  ASP70       0.1840
    108  C        -18.0120   10.7270   21.4670 C.2    70  ASP70       0.2622
    109  O        -18.6600   11.1680   22.4150 O.2    70  ASP70      -0.2715
    110  CB       -15.7100    9.8040   21.9090 C.3    70  ASP70       0.1450
    111  CG       -14.9540    8.6630   22.5790 C.2    70  ASP70       0.3671
    112  OD1      -15.6130    7.6950   23.0200 O.co2  70  ASP70      -0.2456
    113  OD2      -13.7070    8.7330   22.6720 O.co2  70  ASP70      -0.2456
    114  N        -18.0000   11.3150   20.2740 N.am   71  TYR71      -0.1974
    115  CA       -18.7880   12.5160   20.0420 C.3    71  TYR71       0.1639
    116  C        -20.2740   12.2060   20.2210 C.2    71  TYR71       0.2290
    117  O        -21.0360   13.0280   20.7260 O.2    71  TYR71      -0.2864
    118  CB       -18.5460   13.0630   18.6350 C.3    71  TYR71       0.0560
    119  CG       -17.1930   13.7060   18.4430 C.ar   71  TYR71      -0.0198
    120  CD1      -16.3110   13.8660   19.5160 C.ar   71  TYR71      -0.0009
    121  CD2      -16.8070   14.1910   17.1930 C.ar   71  TYR71      -0.0009
    122  CE1      -15.0860   14.4930   19.3460 C.ar   71  TYR71       0.0417
    123  CE2      -15.5830   14.8200   17.0160 C.ar   71  TYR71       0.0417
    124  CZ       -14.7280   14.9690   18.0950 C.ar   71  TYR71       0.1957
    125  OH       -13.5190   15.6060   17.9260 O.3    71  TYR71      -0.2866
    126  N        -12.6910    1.0070   16.6770 N.3   134  ALA134     -0.1245
    127  CA       -12.4370    1.3870   15.2980 C.3   134  ALA134      0.1562
    128  C        -11.3980    0.4500   14.6880 C.2   134  ALA134      0.2260
    129  O        -10.4390    0.0610   15.3500 O.2   134  ALA134     -0.2867
    130  CB       -11.9440    2.8310   15.2270 C.3   134  ALA134      0.0290
    131  N        -10.8790   -1.1220    7.9770 N.3   137  ALA137     -0.1231
    132  CA       -11.6890   -2.0170    7.1540 C.3   137  ALA137      0.1694
    133  C        -11.5990   -1.6640    5.6660 C.2   137  ALA137      0.2592
    134  O        -12.3900   -2.1450    4.8550 O.2   137  ALA137     -0.2718
    135  CB       -13.1470   -1.9570    7.6140 C.3   137  ALA137      0.0304
    136  N        -10.6110   -0.8410    5.3270 N.am  138  GLY138     -0.1957
    137  CA       -10.4390   -0.3910    3.9610 C.3   138  GLY138      0.1869
    138  C         -9.7930   -1.3070    2.9410 C.2   138  GLY138      0.2309
    139  O         -9.1870   -0.8140    1.9970 O.2   138  GLY138     -0.2863
    140  N        -14.3290   -6.3210    2.5810 N.3   143  LEU143     -0.1245
    141  CA       -15.5560   -6.2190    1.8090 C.3   143  LEU143      0.1561
    142  C        -16.0830   -7.6140    1.4230 C.2   143  LEU143      0.2260
    143  O        -17.2870   -7.8390    1.4350 O.2   143  LEU143     -0.2867
    144  CB       -15.3340   -5.3890    0.5370 C.3   143  LEU143      0.0270
    145  CG       -16.6110   -5.2100   -0.3030 C.3   143  LEU143      0.0019
    146  CD1      -17.5080   -4.1730    0.3680 C.3   143  LEU143      0.0001
    147  CD2      -16.2670   -4.7650   -1.7250 C.3   143  LEU143      0.0001
    148  N         -4.2060    4.0050   11.2750 N.3   159  ASP159     -0.1225
    149  CA        -5.3690    4.6500   10.6800 C.3   159  ASP159      0.1805
    150  C         -6.5910    3.7290   10.5830 C.2   159  ASP159      0.2598
    151  O         -6.6750    2.8710    9.7120 O.2   159  ASP159     -0.2718
    152  CB        -5.0460    5.2260    9.2850 C.3   159  ASP159      0.1424
    153  CG        -4.3930    4.2120    8.3520 C.2   159  ASP159      0.3668
    154  OD1       -4.9280    3.0920    8.1870 O.co2 159  ASP159     -0.2456
    155  OD2       -3.3380    4.5420    7.7620 O.co2 159  ASP159     -0.2456
    156  N         -7.5310    3.9110   11.5000 N.am  160  MET160     -0.1965
    157  CA        -8.7560    3.1260   11.4800 C.3   160  MET160      0.1736
    158  C         -9.8390    3.9490   10.7750 C.2   160  MET160      0.2616
    159  O         -9.9090    5.1550   10.9600 O.2   160  MET160     -0.2715
    160  CB        -9.1890    2.7740   12.9030 C.3   160  MET160      0.0427
    161  CG        -8.1720    1.9360   13.6740 C.3   160  MET160      0.0599
    162  SD        -6.7390    2.8850   14.2520 S.3   160  MET160     -0.1393
    163  CE        -7.5300    3.8760   15.5490 C.3   160  MET160      0.0692
    164  N        -10.6770    3.3100    9.9690 N.am  161  ASP161     -0.1957
    165  CA       -11.6890    4.0660    9.2450 C.3   161  ASP161      0.1840
    166  C        -13.1050    3.5470    9.4190 C.2   161  ASP161      0.2622
    167  O        -14.0310    4.1050    8.8480 O.2   161  ASP161     -0.2715
    168  CB       -11.3560    4.0780    7.7510 C.3   161  ASP161      0.1450
    169  CG       -11.3330    2.6780    7.1440 C.2   161  ASP161      0.3671
    170  OD1      -11.6950    1.7110    7.8470 O.co2 161  ASP161     -0.2456
    171  OD2      -10.9500    2.5420    5.9610 O.co2 161  ASP161     -0.2456
    172  N        -13.2760    2.5010   10.2180 N.am  162  HIS162     -0.1959
    173  CA       -14.5990    1.9110   10.3930 C.3   162  HIS162      0.1787
    174  C        -14.9640    1.6500   11.8510 C.2   162  HIS162      0.2620
    175  O        -14.3500    0.8330   12.5090 O.2   162  HIS162     -0.2715
    176  CB       -14.6640    0.6090    9.5780 C.3   162  HIS162      0.0785
    177  CG       -16.0460    0.0550    9.3970 C.ar  162  HIS162      0.0821
    178  ND1      -17.1400    0.8460    9.1130 N.ar  162  HIS162     -0.2267
    179  CD2      -16.4930   -1.2240    9.3730 C.ar  162  HIS162      0.1154
    180  CE1      -18.1990    0.0800    8.9210 C.ar  162  HIS162      0.1986
    181  NE2      -17.8330   -1.1800    9.0720 N.ar  162  HIS162     -0.2212
    182  N        -15.9720    2.3640   12.3400 N.am  163  GLY163     -0.1954
    183  CA       -16.4140    2.1680   13.7060 C.3   163  GLY163      0.1869
    184  C        -17.3490    0.9740   13.7720 C.2   163  GLY163      0.2309
    185  O        -18.3530    0.9310   13.0520 O.2   163  GLY163     -0.2863
    186  N        -23.2570   -3.3980    8.3460 N.3   183  TRP183     -0.1241
    187  CA       -23.4000   -3.5170    6.9030 C.3   183  TRP183      0.1605
    188  C        -24.5060   -4.5130    6.5260 C.2   183  TRP183      0.2264
    189  O        -24.5140   -5.0430    5.4180 O.2   183  TRP183     -0.2867
    190  CB       -22.0780   -3.9890    6.2840 C.3   183  TRP183      0.0550
    191  CG       -20.9920   -2.9510    6.2390 C.ar  183  TRP183      0.0003
    192  CD1      -21.0440   -1.6740    6.7360 C.ar  183  TRP183      0.0946
    193  CD2      -19.7000   -3.0910    5.6320 C.ar  183  TRP183      0.0152
    194  NE1      -19.8640   -1.0130    6.4700 N.ar  183  TRP183     -0.2442
    195  CE2      -19.0240   -1.8580    5.7940 C.ar  183  TRP183      0.0810
    196  CE3      -19.0490   -4.1370    4.9640 C.ar  183  TRP183      0.0012
    197  CZ2      -17.7280   -1.6440    5.3100 C.ar  183  TRP183      0.0191
    198  CZ3      -17.7630   -3.9250    4.4790 C.ar  183  TRP183      0.0001
    199  CH2      -17.1160   -2.6870    4.6550 C.ar  183  TRP183      0.0015
    200  N        -23.8320   -9.7170    5.1210 N.3   187  TRP187     -0.1241
    201  CA       -22.3780   -9.6080    5.0570 C.3   187  TRP187      0.1605
    202  C        -21.7490  -10.4560    6.1720 C.2   187  TRP187      0.2264
    203  O        -22.3160  -10.5780    7.2430 O.2   187  TRP187     -0.2867
    204  CB       -21.9520   -8.1430    5.2360 C.3   187  TRP187      0.0550
    205  CG       -20.4550   -7.9240    5.2580 C.ar  187  TRP187      0.0003
    206  CD1      -19.6440   -7.6650    4.1880 C.ar  187  TRP187      0.0946
    207  CD2      -19.5990   -7.9660    6.4070 C.ar  187  TRP187      0.0152
    208  NE1      -18.3390   -7.5420    4.5990 N.ar  187  TRP187     -0.2442
    209  CE2      -18.2810   -7.7220    5.9550 C.ar  187  TRP187      0.0810
    210  CE3      -19.8170   -8.1870    7.7720 C.ar  187  TRP187      0.0012
    211  CZ2      -17.1830   -7.6920    6.8240 C.ar  187  TRP187      0.0191
    212  CZ3      -18.7240   -8.1560    8.6400 C.ar  187  TRP187      0.0001
    213  CH2      -17.4230   -7.9110    8.1580 C.ar  187  TRP187      0.0015
    214  N         -8.7080    2.7100   19.3570 N.3   208  ALA208     -0.1245
    215  CA        -9.7140    3.7220   19.6530 C.3   208  ALA208      0.1562
    216  C        -10.9590    3.1050   20.2800 C.2   208  ALA208      0.2260
    217  O        -12.0690    3.3240   19.8120 O.2   208  ALA208     -0.2867
    218  CB       -10.0790    4.4820   18.3800 C.3   208  ALA208      0.0290
@<TRIPOS>BOND
     1    30    28   am
     2    29    28    2
     3    28    27    1
     4   147   145    1
     5    27    26    1
     6   145   146    1
     7   145   144    1
     8    26    23    1
     9   144   141    1
    10   142   143    2
    11   142   141    1
    12    23    22    1
    13    23    24    1
    14   141   140    1
    15    25    24    2
    16   139   138    2
    17    22    20   am
    18    24    31   am
    19   138   137    1
    20    20    19    1
    21    20    21    2
    22    80    79    2
    23    31    32    1
    24    19    18    1
    25   137   136    1
    26   206   208   ar
    27   206   205   ar
    28    81    79   am
    29    79    78    1
    30    32    35    1
    31    32    33    1
    32   198   199   ar
    33   198   196   ar
    34   208   209   ar
    35   199   197   ar
    36   134   133    2
    37   196   193   ar
    38   201   200    1
    39   201   204    1
    40   201   202    1
    41     8     6   am
    42    35    36    1
    43     7     6    2
    44    18    11   am
    45   204   205    1
    46   205   207   ar
    47    71    70    2
    48   197   195   ar
    49   136   133   am
    50    72    73    1
    51    72    69    1
    52   189   188    2
    53    33    37   am
    54    33    34    2
    55     6     5    1
    56   193   195   ar
    57   193   191   ar
    58   133   132    1
    59    37    38    1
    60    78    75    1
    61   195   194   ar
    62    73    36    1
    63    12    11    2
    64   209   207   ar
    65   209   211   ar
    66   171   169   ar
    67    70    74   am
    68    70    69    1
    69    75    74    1
    70    75    76    1
    71    11    10    1
    72   202   203    2
    73   191   190    1
    74   191   192   ar
    75   190   187    1
    76   207   210   ar
    77   194   192   ar
    78   188   187    1
    79    69    68    1
    80    38    39    1
    81     5     2    1
    82   211   213   ar
    83   187   186    1
    84    14    15    1
    85    14    13    1
    86   169   168    1
    87   169   170   ar
    88   132   135    1
    89   132   131    1
    90    77    76    2
    91    76    82   am
    92    17    15   am
    93    10     9    1
    94    10    13    1
    95    15    16    2
    96     4     3    2
    97   168   165    1
    98     9     3   am
    99   155   153   ar
   100   210   212   ar
   101     3     2    1
   102     2     1    1
   103    39    40    2
   104   213   212   ar
   105   154   153   ar
   106    82    83    1
   107    62    61    2
   108   153   152    1
   109   167   166    2
   110   180   181   ar
   111   180   178   ar
   112   181   179   ar
   113   178   177   ar
   114   165   166    1
   115   165   164    1
   116   152   149    1
   117    83    84    1
   118   179   177   ar
   119   177   176    1
   120   166   172   am
   121    63    64    1
   122    63    60    1
   123    61    60    1
   124    66    65   ar
   125   176   173    1
   126   151   150    2
   127    65    67   ar
   128    65    64    1
   129   164   158   am
   130   172   173    1
   131    60    59    1
   132   173   174    1
   133   150   149    1
   134   150   156   am
   135   149   148    1
   136    84    85    2
   137    84    86   am
   138   158   159    2
   139   158   157    1
   140   157   156    1
   141   157   160    1
   142    49    47   ar
   143    49    50   ar
   144    86    87    1
   145   174   182   am
   146   174   175    2
   147    47    46   ar
   148   182   183    1
   149    50    52   ar
   150    50    48   ar
   151    52    54   ar
   152    41    42    1
   153   160   161    1
   154    87    88    1
   155   185   184    2
   156    46    48   ar
   157    46    45    1
   158    89    88    2
   159   161   162    1
   160   183   184    1
   161    48    51   ar
   162    88    90   am
   163    54    53   ar
   164    58    57    2
   165    45    42    1
   166    42    43    1
   167   162   163    1
   168   128   127    1
   169   128   129    2
   170    57    56    1
   171    43    44    2
   172    51    53   ar
   173   130   127    1
   174    90    91    1
   175   127   126    1
   176    97    95    1
   177    56    55    1
   178    91    94    1
   179    91    92    1
   180    95    94    1
   181    95    96    1
   182   104   105    1
   183   104   103    1
   184   123   121   ar
   185   123   124   ar
   186   121   119   ar
   187    92    93    2
   188    92    98   am
   189    98    99    1
   190   125   124    1
   191   124   122   ar
   192   103   102    1
   193   218   215    1
   194   119   118    1
   195   119   120   ar
   196   118   115    1
   197    99   102    1
   198    99   100    1
   199   122   120   ar
   200   214   215    1
   201   215   216    1
   202   217   216    2
   203   115   116    1
   204   115   114    1
   205   100   106   am
   206   100   101    2
   207   116   117    2
   208   114   108   am
   209   106   107    1
   210   108   107    1
   211   108   109    2
   212   107   110    1
   213   110   111    1
   214   111   113   ar
   215   111   112   ar
