@<TRIPOS>MOLECULE
tmp/3bc4A00.pdb
 68 62 0 0 0
SMALL
GASTEIGER

@<TRIPOS>ATOM
      1  N          2.9890    1.6680   -4.4080 N.3    25  ASP25      -0.1239
      2  CA         3.2580    2.5460   -3.2690 C.3    25  ASP25       0.1674
      3  C          2.0270    3.3010   -2.8160 C.2    25  ASP25       0.2266
      4  O          1.6790    4.3580   -3.3650 O.2    25  ASP25      -0.2867
      5  CB         4.3840    3.4990   -3.6900 C.3    25  ASP25       0.1410
      6  CG         4.9310    4.3290   -2.5440 C.2    25  ASP25       0.3668
      7  OD1        4.2740    4.4060   -1.4870 O.co2  25  ASP25      -0.2456
      8  OD2        6.0270    4.9010   -2.7050 O.co2  25  ASP25      -0.2456
      9  N          1.6990    5.0500   -0.4440 N.3    27  GLY27      -0.1210
     10  CA         2.0990    6.2960    0.1970 C.3    27  GLY27       0.1956
     11  C          2.3250    7.3650   -0.8570 C.2    27  GLY27       0.2611
     12  O          2.6020    8.5270   -0.5610 O.2    27  GLY27      -0.2717
     13  N          2.2050    6.9420   -2.1190 N.am   28  ALA28      -0.1979
     14  CA         2.4170    7.9290   -3.1750 C.3    28  ALA28       0.1597
     15  C          1.0920    8.3530   -3.7760 C.2    28  ALA28       0.2287
     16  O          0.2540    7.5240   -4.1360 O.2    28  ALA28      -0.2864
     17  CB         3.3300    7.3960   -4.2570 C.3    28  ALA28       0.0319
     18  N          4.9060    7.8190  -10.9060 N.3    32  VAL32      -0.1245
     19  CA         6.0970    8.4870  -11.4220 C.3    32  VAL32       0.1561
     20  C          7.0590    7.4300  -11.9550 C.2    32  VAL32       0.2260
     21  O          7.4200    6.4830  -11.2550 O.2    32  VAL32      -0.2867
     22  CB         6.7710    9.3320  -10.3320 C.3    32  VAL32       0.0252
     23  CG1        7.7930   10.2900  -10.9290 C.3    32  VAL32       0.0019
     24  CG2        5.7130   10.1000   -9.5520 C.3    32  VAL32       0.0019
     25  N          6.7540   18.0970   -8.4810 N.3    47  ILE47      -0.1245
     26  CA         6.2930   17.1070   -7.5150 C.3    47  ILE47       0.1561
     27  C          7.2660   17.0310   -6.3310 C.2    47  ILE47       0.2260
     28  O          8.4340   17.4080   -6.4350 O.2    47  ILE47      -0.2867
     29  CB         6.1240   15.7000   -8.1040 C.3    47  ILE47       0.0252
     30  CG1        7.3930   15.1200   -8.6980 C.3    47  ILE47       0.0019
     31  CG2        4.9840   15.6830   -9.1130 C.3    47  ILE47       0.0019
     32  CD1        7.3550   13.6450   -9.0090 C.3    47  ILE47       0.0001
     33  N         10.9550   18.1820   -7.7530 N.3    54  ILE54      -0.1245
     34  CA        11.4910   17.8460   -9.0490 C.3    54  ILE54       0.1561
     35  C         10.3880   18.0510  -10.0960 C.2    54  ILE54       0.2260
     36  O          9.2120   17.9440   -9.7920 O.2    54  ILE54      -0.2867
     37  CB        12.0580   16.4250   -9.1790 C.3    54  ILE54       0.0252
     38  CG1       11.0320   15.3080   -9.0020 C.3    54  ILE54       0.0019
     39  CG2       13.2570   16.2780   -8.2390 C.3    54  ILE54       0.0019
     40  CD1       11.6440   13.9340   -9.1680 C.3    54  ILE54       0.0001
     41  N         12.9260   10.2820  -11.9270 N.3    80  THR80      -0.1204
     42  CA        12.6750    9.8190  -10.5680 C.3    80  THR80       0.1979
     43  C         13.7150    8.7620  -10.1980 C.2    80  THR80       0.2460
     44  O         14.1180    7.9110  -10.9780 O.2    80  THR80      -0.2732
     45  CB        11.2600    9.2660  -10.3620 C.3    80  THR80       0.1783
     46  OG1       11.1910    8.6340   -9.0760 O.3    80  THR80      -0.2211
     47  CG2       10.8870    8.2160  -11.3990 C.3    80  THR80       0.0376
     48  N         14.1810    8.8380   -8.9600 N.am   81  PRO81      -0.2717
     49  CA        15.1080    7.7990   -8.5040 C.3    81  PRO81       0.1535
     50  C         14.3880    6.4990   -8.1990 C.2    81  PRO81       0.2598
     51  O         15.0270    5.4750   -7.9610 O.2    81  PRO81      -0.2715
     52  CB        15.7130    8.4350   -7.2470 C.3    81  PRO81       0.0310
     53  CG        14.7020    9.4210   -6.7590 C.3    81  PRO81       0.0237
     54  CD        13.9260    9.8800   -7.9610 C.3    81  PRO81       0.0939
     55  N         13.0610    6.4880   -8.1910 N.am   82  VAL82      -0.1978
     56  CA        12.2620    5.3310   -7.8040 C.3    82  VAL82       0.1596
     57  C         11.0050    5.2610   -8.6820 C.2    82  VAL82       0.2287
     58  O         10.2670    6.2570   -8.6920 O.2    82  VAL82      -0.2864
     59  CB        11.8170    5.3830   -6.3350 C.3    82  VAL82       0.0276
     60  CG1       12.9770    5.2840   -5.3580 C.3    82  VAL82       0.0022
     61  CG2       11.0540    6.6790   -6.0570 C.3    82  VAL82       0.0022
     62  N          7.3760    4.4110   -9.1850 N.3    84  VAL84      -0.1245
     63  CA         6.2950    4.0120   -8.3090 C.3    84  VAL84       0.1561
     64  C          4.9580    4.1140   -9.0330 C.2    84  VAL84       0.2260
     65  O          4.7450    5.0890   -9.7470 O.2    84  VAL84      -0.2867
     66  CB         6.1620    4.8500   -7.0200 C.3    84  VAL84       0.0252
     67  CG1        7.3650    4.6590   -6.1090 C.3    84  VAL84       0.0019
     68  CG2        5.9550    6.3100   -7.4050 C.3    84  VAL84       0.0019
@<TRIPOS>BOND
     1    20    19    1
     2    20    21    2
     3    41    42    1
     4    19    18    1
     5    19    22    1
     6    47    45    1
     7    44    43    2
     8    23    22    1
     9    42    45    1
    10    42    43    1
    11    45    46    1
    12    22    24    1
    13    43    48   am
    14    35    36    2
    15    35    34    1
    16    65    64    2
    17    62    63    1
    18    37    34    1
    19    37    38    1
    20    37    39    1
    21    40    38    1
    22    31    29    1
    23    34    33    1
    24    64    63    1
    25    32    30    1
    26    48    49    1
    27    48    54    1
    28    30    29    1
    29    58    57    2
    30    57    56    1
    31    49    50    1
    32    49    52    1
    33    25    26    1
    34    63    66    1
    35    50    55   am
    36    50    51    2
    37    55    56    1
    38    29    26    1
    39    54    53    1
    40    56    59    1
    41    26    27    1
    42    68    66    1
    43    52    53    1
    44    66    67    1
    45    28    27    2
    46    59    61    1
    47    59    60    1
    48     1     2    1
    49    17    14    1
    50    16    15    2
    51    15    14    1
    52     5     2    1
    53     5     6    1
    54     4     3    2
    55     2     3    1
    56    14    13    1
    57     8     6   ar
    58     6     7   ar
    59    13    11   am
    60    11    12    2
    61    11    10    1
    62     9    10    1
