@<TRIPOS>MOLECULE
tmp/3bc9A01.pdb
 146 145 0 0 0
SMALL
GASTEIGER

@<TRIPOS>ATOM
      1  N         27.1800    7.5650    7.9200 N.3   435  ASP435     -0.1225
      2  CA        26.0610    8.1210    8.7250 C.3   435  ASP435      0.1805
      3  C         26.5410    9.3530    9.3820 C.2   435  ASP435      0.2598
      4  O         27.0020    9.3410   10.5400 O.2   435  ASP435     -0.2718
      5  CB        25.5550    7.1140    9.7330 C.3   435  ASP435      0.1424
      6  CG        24.3420    7.6020   10.5370 C.2   435  ASP435      0.3668
      7  OD1       23.6240    8.5120   10.0820 O.co2 435  ASP435     -0.2456
      8  OD2       24.0710    6.9860   11.5830 O.co2 435  ASP435     -0.2456
      9  N         26.5070   10.4480    8.6260 N.am  436  ARG436     -0.1966
     10  CA        26.7400   11.7600    9.2060 C.3   436  ARG436      0.1729
     11  C         25.6970   12.7020    8.7570 C.2   436  ARG436      0.2616
     12  O         24.9400   12.4150    7.8010 O.2   436  ARG436     -0.2715
     13  CB        28.1640   12.2730    8.9840 C.3   436  ARG436      0.0348
     14  CG        28.7090   12.2570    7.7060 C.3   436  ARG436      0.0492
     15  CD        29.9400   13.0750    7.7360 C.3   436  ARG436      0.2205
     16  NE        31.1680   12.2870    7.7470 N.pl3 436  ARG436     -0.0865
     17  CZ        32.3200   12.6910    7.2510 C.cat 436  ARG436      0.5346
     18  NH1       32.4080   13.9330    6.7780 N.pl3 436  ARG436      0.1354
     19  NH2       33.3570   11.8680    7.2280 N.pl3 436  ARG436      0.1354
     20  N         25.6180   13.8080    9.4780 N.am  437  ASP437     -0.1971
     21  CA        24.5530   14.7460    9.2630 C.3   437  ASP437      0.1709
     22  C         24.6410   15.4660    7.9520 C.2   437  ASP437      0.2293
     23  O         23.5980   15.6820    7.2970 O.2   437  ASP437     -0.2864
     24  CB        24.5200   15.7920   10.3790 C.3   437  ASP437      0.1436
     25  CG        24.0650   15.2120   11.6820 C.2   437  ASP437      0.3671
     26  OD1       23.5460   14.0780   11.7040 O.co2 437  ASP437     -0.2456
     27  OD2       24.2150   15.8800   12.6910 O.co2 437  ASP437     -0.2456
     28  N         24.0380    7.0700    1.5130 N.3   443  VAL443     -0.1231
     29  CA        22.9020    7.1160    2.4090 C.3   443  VAL443      0.1692
     30  C         23.2360    6.2450    3.6380 C.2   443  VAL443      0.2593
     31  O         23.9220    5.2520    3.4860 O.2   443  VAL443     -0.2718
     32  CB        21.6560    6.5070    1.6640 C.3   443  VAL443      0.0266
     33  CG1       21.9240    5.0940    1.2580 C.3   443  VAL443      0.0020
     34  CG2       20.4140    6.6650    2.4630 C.3   443  VAL443      0.0020
     35  N         22.7120    6.6140    4.8070 N.am  444  SER444     -0.1938
     36  CA        22.8180    5.7850    6.0010 C.3   444  SER444      0.2055
     37  C         21.8010    4.6190    5.9730 C.2   444  SER444      0.2643
     38  O         20.9040    4.5780    5.1220 O.2   444  SER444     -0.2714
     39  CB        22.6110    6.6350    7.2510 C.3   444  SER444      0.2130
     40  OG        21.2780    7.1480    7.2560 O.3   444  SER444     -0.2179
     41  N         21.9630    3.6820    6.8810 N.am  445  ILE445     -0.1963
     42  CA        21.0030    2.5940    6.9810 C.3   445  ILE445      0.1727
     43  C         19.9210    3.1260    7.9390 C.2   445  ILE445      0.2616
     44  O         19.8790    2.8020    9.1080 O.2   445  ILE445     -0.2715
     45  CB        21.5940    1.2530    7.4310 C.3   445  ILE445      0.0290
     46  CG1       22.7840    0.8450    6.5240 C.3   445  ILE445      0.0022
     47  CG2       20.5530    0.1560    7.4200 C.3   445  ILE445      0.0023
     48  CD1       22.4780    0.8470    5.0440 C.3   445  ILE445      0.0001
     49  N         19.0260    3.9490    7.3590 N.am  446  TYR446     -0.1960
     50  CA        18.0210    4.7220    8.1340 C.3   446  TYR446      0.1771
     51  C         16.7450    3.9120    8.4290 C.2   446  TYR446      0.2620
     52  O         15.9130    4.3800    9.2290 O.2   446  TYR446     -0.2715
     53  CB        17.7030    6.0610    7.4270 C.3   446  TYR446      0.0574
     54  CG        17.1480    5.9010    6.0790 C.ar  446  TYR446     -0.0198
     55  CD1       17.9090    6.0890    4.9540 C.ar  446  TYR446     -0.0009
     56  CD2       15.8030    5.5730    5.9050 C.ar  446  TYR446     -0.0009
     57  CE1       17.3720    5.9290    3.6980 C.ar  446  TYR446      0.0417
     58  CE2       15.2780    5.3760    4.6360 C.ar  446  TYR446      0.0417
     59  CZ        16.0520    5.6020    3.5440 C.ar  446  TYR446      0.1957
     60  OH        15.4960    5.4160    2.2670 O.3   446  TYR446     -0.2866
     61  N         16.6450    2.6990    7.8670 N.am  447  SER447     -0.1936
     62  CA        15.5430    1.7940    8.1370 C.3   447  SER447      0.2055
     63  C         16.0800    0.3840    8.1100 C.2   447  SER447      0.2643
     64  O         17.0560    0.1200    7.3940 O.2   447  SER447     -0.2714
     65  CB        14.4460    1.9840    7.0730 C.3   447  SER447      0.2130
     66  OG        13.3800    1.0740    7.2830 O.3   447  SER447     -0.2179
     67  N         15.4870   -0.4790    8.9170 N.am  448  ARG448     -0.1963
     68  CA        15.8220   -1.8610    9.0350 C.3   448  ARG448      0.1729
     69  C         17.2700   -2.0740    9.5540 C.2   448  ARG448      0.2616
     70  O         17.8850   -3.1160    9.3450 O.2   448  ARG448     -0.2715
     71  CB        15.6290   -2.6480    7.7480 C.3   448  ARG448      0.0348
     72  CG        14.1370   -2.6080    7.2640 C.3   448  ARG448      0.0492
     73  CD        13.9130   -3.4530    6.0190 C.3   448  ARG448      0.2205
     74  NE        12.4890   -3.4300    5.6100 N.pl3 448  ARG448     -0.0865
     75  CZ        11.9690   -2.5720    4.7500 C.cat 448  ARG448      0.5346
     76  NH1       12.7010   -1.6640    4.1240 N.pl3 448  ARG448      0.1354
     77  NH2       10.6610   -2.6380    4.5310 N.pl3 448  ARG448      0.1354
     78  N         17.6940   -1.1330   10.3610 N.am  449  LYS449     -0.1963
     79  CA        19.0460   -1.2080   10.9670 C.3   449  LYS449      0.1728
     80  C         19.1180   -2.3410   11.9670 C.2   449  LYS449      0.2616
     81  O         20.1440   -2.9820   12.1260 O.2   449  LYS449     -0.2715
     82  CB        19.4560    0.1480   11.5070 C.3   449  LYS449      0.0311
     83  CG        20.7920    0.1310   12.3210 C.3   449  LYS449      0.0038
     84  CD        21.2380    1.5580   12.5380 C.3   449  LYS449      0.0206
     85  CE        22.1250    2.0770   11.4000 C.3   449  LYS449      0.1093
     86  NZ        22.4920    3.4650   11.4950 N.3   449  LYS449     -0.1314
     87  N         18.0380   -2.5620   12.7460 N.am  450  TYR450     -0.1960
     88  CA        18.1090   -3.7090   13.6430 C.3   450  TYR450      0.1771
     89  C         18.3200   -5.0660   12.9510 C.2   450  TYR450      0.2619
     90  O         18.9970   -5.9610   13.4540 O.2   450  TYR450     -0.2715
     91  CB        16.9060   -3.7700   14.6100 C.3   450  TYR450      0.0574
     92  CG        16.8150   -2.6680   15.6260 C.ar  450  TYR450     -0.0198
     93  CD1       15.7960   -1.7560   15.5720 C.ar  450  TYR450     -0.0009
     94  CD2       17.6670   -2.6280   16.7160 C.ar  450  TYR450     -0.0009
     95  CE1       15.6470   -0.7560   16.5440 C.ar  450  TYR450      0.0417
     96  CE2       17.5260   -1.6210   17.6890 C.ar  450  TYR450      0.0417
     97  CZ        16.5180   -0.7370   17.6010 C.ar  450  TYR450      0.1957
     98  OH        16.4170    0.2650   18.5770 O.3   450  TYR450     -0.2866
     99  N         17.6180   -5.2570   11.8160 N.am  451  GLN451     -0.1977
    100  CA        17.7500   -6.4560   11.0560 C.3   451  GLN451      0.1601
    101  C         19.2190   -6.6680   10.6050 C.2   451  GLN451      0.2287
    102  O         19.7300   -7.7920   10.6920 O.2   451  GLN451     -0.2864
    103  CB        16.8900   -6.3510    9.7770 C.3   451  GLN451      0.0394
    104  CG        15.3480   -6.5800    9.9710 C.3   451  GLN451      0.0908
    105  CD        14.5880   -5.3490   10.3120 C.2   451  GLN451      0.2608
    106  OE1       15.1200   -4.4110   10.9060 O.2   451  GLN451     -0.2717
    107  NE2       13.2400   -5.3710   10.0350 N.am  451  GLN451     -0.0878
    108  N         21.3850    7.7250   18.5190 N.3   474  TRP474     -0.1241
    109  CA        20.1220    7.3710   17.9500 C.3   474  TRP474      0.1605
    110  C         19.2730    6.5230   18.9130 C.2   474  TRP474      0.2264
    111  O         18.1540    6.0700   18.5510 O.2   474  TRP474     -0.2867
    112  CB        20.3080    6.6540   16.6470 C.3   474  TRP474      0.0550
    113  CG        21.0620    7.3730   15.6070 C.ar  474  TRP474      0.0003
    114  CD1       21.9840    6.7900   14.7300 C.ar  474  TRP474      0.0946
    115  CD2       20.9090    8.7220   15.1640 C.ar  474  TRP474      0.0152
    116  NE1       22.3740    7.7000   13.8140 N.ar  474  TRP474     -0.2442
    117  CE2       21.7690    8.8970   14.0740 C.ar  474  TRP474      0.0810
    118  CE3       20.1630    9.8210   15.6060 C.ar  474  TRP474      0.0012
    119  CZ2       21.8650   10.0880   13.3900 C.ar  474  TRP474      0.0191
    120  CZ3       20.3140   11.0270   14.9330 C.ar  474  TRP474      0.0001
    121  CH2       21.1660   11.1400   13.8460 C.ar  474  TRP474      0.0015
    122  N         19.4870    3.4270   20.1000 N.3   476  MET476     -0.1245
    123  CA        19.1520    2.0490   19.8250 C.3   476  MET476      0.1570
    124  C         19.6890    1.0100   20.8080 C.2   476  MET476      0.2261
    125  O         19.5280   -0.1580   20.6090 O.2   476  MET476     -0.2867
    126  CB        19.6140    1.7310   18.4010 C.3   476  MET476      0.0387
    127  CG        18.9820    2.6050   17.3600 C.3   476  MET476      0.0595
    128  SD        19.6480    2.3000   15.6910 S.3   476  MET476     -0.1393
    129  CE        19.0700    0.6530   15.4490 C.3   476  MET476      0.0692
    130  N          9.0450   -3.0910    9.4890 N.3   574  GLU574     -0.1231
    131  CA        10.3720   -2.4750    9.5490 C.3   574  GLU574      0.1699
    132  C         10.8450   -2.4340   10.9980 C.2   574  GLU574      0.2592
    133  O         11.9830   -2.7650   11.2960 O.2   574  GLU574     -0.2718
    134  CB        10.2950   -1.0800    8.9700 C.3   574  GLU574      0.0402
    135  CG        11.5190   -0.3910    8.9570 C.3   574  GLU574      0.1161
    136  CD        11.2980    1.1130    8.8930 C.2   574  GLU574      0.3649
    137  OE1       10.5220    1.5380    7.9650 O.co2 574  GLU574     -0.2457
    138  OE2       11.8730    1.8410    9.7630 O.co2 574  GLU574     -0.2457
    139  N          9.9620   -2.0370   11.8990 N.am  575  ASP575     -0.1974
    140  CA        10.3370   -1.7030   13.2610 C.3   575  ASP575      0.1709
    141  C         10.6500   -2.9350   14.0560 C.2   575  ASP575      0.2293
    142  O         11.5580   -2.8700   14.9130 O.2   575  ASP575     -0.2864
    143  CB         9.1630   -0.9290   13.9210 C.3   575  ASP575      0.1436
    144  CG         9.4940   -0.3980   15.2900 C.2   575  ASP575      0.3671
    145  OD1       10.4810    0.3820   15.4320 O.co2 575  ASP575     -0.2456
    146  OD2        8.6990   -0.6870   16.2160 O.co2 575  ASP575     -0.2456
@<TRIPOS>BOND
     1    33    32    1
     2    28    29    1
     3    32    29    1
     4    32    34    1
     5    60    59    1
     6    29    30    1
     7    31    30    2
     8    59    57   ar
     9    59    58   ar
    10    30    35   am
    11    57    55   ar
    12    76    75    1
    13    77    75    1
    14    58    56   ar
    15    75    74    2
    16    35    36    1
    17    55    54   ar
    18    48    46    1
    19    38    37    2
    20    74    73    1
    21    56    54   ar
    22    37    36    1
    23    37    41   am
    24    36    39    1
    25    73    72    1
    26    54    53    1
    27    46    45    1
    28    18    17    1
    29    41    42    1
    30    42    45    1
    31    42    43    1
    32    65    66    1
    33    65    62    1
    34    19    17    1
    35    17    16    2
    36    39    40    1
    37    72    71    1
    38    23    22    2
    39    49    43   am
    40    49    50    1
    41    64    63    2
    42    47    45    1
    43    53    50    1
    44    14    15    1
    45    14    13    1
    46    15    16    1
    47    71    68    1
    48    12    11    2
    49    61    62    1
    50    61    51   am
    51     1     2    1
    52    43    44    2
    53    22    21    1
    54   137   136   ar
    55    63    62    1
    56    63    67   am
    57    50    51    1
    58    51    52    2
    59     9    10    1
    60     9     3   am
    61     2     3    1
    62     2     5    1
    63    11    10    1
    64    11    20   am
    65   136   135    1
    66   136   138   ar
    67    67    68    1
    68   135   134    1
    69   134   131    1
    70    13    10    1
    71    68    69    1
    72    21    20    1
    73    21    24    1
    74    70    69    2
    75     3     4    2
    76   130   131    1
    77   131   132    1
    78    69    78   am
    79     5     6    1
    80   103   104    1
    81   103   100    1
    82   104   105    1
    83   107   105   am
    84     7     6   ar
    85   105   106    2
    86    78    79    1
    87    24    25    1
    88     6     8   ar
    89   101   102    2
    90   101   100    1
    91    79    82    1
    92    79    80    1
    93   132   133    2
    94   132   139   am
    95   100    99    1
    96    85    86    1
    97    85    84    1
    98    82    83    1
    99    25    26   ar
   100    25    27   ar
   101    99    89   am
   102   139   140    1
   103    80    81    2
   104    80    87   am
   105    83    84    1
   106    87    88    1
   107    89    90    2
   108    89    88    1
   109   140   143    1
   110   140   141    1
   111   119   121   ar
   112   119   117   ar
   113    88    91    1
   114   116   117   ar
   115   116   114   ar
   116   121   120   ar
   117   143   144    1
   118   141   142    2
   119   117   115   ar
   120    91    92    1
   121   114   113   ar
   122   120   118   ar
   123   115   118   ar
   124   115   113   ar
   125   144   145   ar
   126   144   146   ar
   127   129   128    1
   128    93    92   ar
   129    93    95   ar
   130   113   112    1
   131    92    94   ar
   132   128   127    1
   133    95    97   ar
   134   112   109    1
   135    94    96   ar
   136   127   126    1
   137    97    96   ar
   138    97    98    1
   139   109   108    1
   140   109   110    1
   141   126   123    1
   142   111   110    2
   143   123   122    1
   144   123   124    1
   145   125   124    2
