@<TRIPOS>MOLECULE
tmp/3bccC03.pdb
 196 183 0 0 0
SMALL
GASTEIGER

@<TRIPOS>ATOM
      1  N         40.0340  110.3150   75.6660 N.3    14  ILE14      -0.1245
      2  CA        39.6850  110.5960   74.2920 C.3    14  ILE14       0.1561
      3  C         39.6430  109.2930   73.4770 C.2    14  ILE14       0.2260
      4  O         38.5850  108.8920   72.9890 O.2    14  ILE14      -0.2867
      5  CB        40.7090  111.5330   73.6770 C.3    14  ILE14       0.0252
      6  CG1       40.9220  112.7280   74.5810 C.3    14  ILE14       0.0019
      7  CG2       40.2140  112.0530   72.3740 C.3    14  ILE14       0.0019
      8  CD1       41.9730  113.6790   74.0650 C.3    14  ILE14       0.0001
      9  N         36.4900  107.4060   73.9980 N.3    17  SER17      -0.1202
     10  CA        35.1650  108.0180   73.9400 C.3    17  SER17       0.2020
     11  C         34.9310  108.6210   72.5710 C.2    17  SER17       0.2618
     12  O         33.8490  109.1090   72.2910 O.2    17  SER17      -0.2717
     13  CB        35.0480  109.1260   74.9820 C.3    17  SER17       0.2103
     14  OG        35.3670  108.6360   76.2730 O.3    17  SER17      -0.2182
     15  N         35.9680  108.6150   71.7430 N.am   18  LEU18      -0.1979
     16  CA        35.8920  109.1570   70.3910 C.3    18  LEU18       0.1596
     17  C         36.5980  108.2260   69.4200 C.2    18  LEU18       0.2287
     18  O         36.3100  108.2190   68.2320 O.2    18  LEU18      -0.2864
     19  CB        36.5210  110.5430   70.3190 C.3    18  LEU18       0.0297
     20  CG        35.8590  111.5680   71.2300 C.3    18  LEU18       0.0022
     21  CD1       36.2870  111.3470   72.6890 C.3    18  LEU18       0.0001
     22  CD2       36.2500  112.9630   70.7570 C.3    18  LEU18       0.0001
     23  N         35.8310  103.5070   70.8860 N.3    21  LEU21      -0.1245
     24  CA        34.6000  103.2590   71.6050 C.3    21  LEU21       0.1561
     25  C         33.7490  102.3480   70.7660 C.2    21  LEU21       0.2260
     26  O         33.5470  102.6030   69.5910 O.2    21  LEU21      -0.2867
     27  CB        33.8000  104.5420   71.8560 C.3    21  LEU21       0.0270
     28  CG        32.3920  104.2270   72.3970 C.3    21  LEU21       0.0019
     29  CD1       32.5230  103.4960   73.7260 C.3    21  LEU21       0.0001
     30  CD2       31.5590  105.5000   72.5450 C.3    21  LEU21       0.0001
     31  N         30.5350  101.0410   69.3240 N.3    23  ALA23      -0.1245
     32  CA        29.2140  101.5780   69.0730 C.3    23  ALA23       0.1562
     33  C         28.5120  100.6010   68.1460 C.2    23  ALA23       0.2260
     34  O         29.1670   99.9480   67.3410 O.2    23  ALA23      -0.2867
     35  CB        29.3420  102.9140   68.4080 C.3    23  ALA23       0.0290
     36  N         22.9780  102.3820   63.2680 N.3    27  ILE27      -0.1245
     37  CA        22.4970  103.5110   64.0410 C.3    27  ILE27       0.1561
     38  C         22.0170  104.6700   63.1730 C.2    27  ILE27       0.2260
     39  O         22.7520  105.2330   62.3630 O.2    27  ILE27      -0.2867
     40  CB        23.5700  103.9650   65.0500 C.3    27  ILE27       0.0252
     41  CG1       23.2200  103.4120   66.4290 C.3    27  ILE27       0.0019
     42  CG2       23.7070  105.4740   65.0510 C.3    27  ILE27       0.0019
     43  CD1       24.1730  103.8320   67.4880 C.3    27  ILE27       0.0001
     44  N         20.5960  109.1100   66.3860 N.3    31  TRP31      -0.1227
     45  CA        21.6210  108.8730   67.3440 C.3    31  TRP31       0.1737
     46  C         22.5900  110.0270   67.3260 C.2    31  TRP31       0.2595
     47  O         23.3960  110.1830   68.2330 O.2    31  TRP31      -0.2718
     48  CB        22.2890  107.5460   67.0770 C.3    31  TRP31       0.0564
     49  CG        21.8990  106.5460   68.1070 C.ar   31  TRP31       0.0003
     50  CD1       22.5040  106.3280   69.3050 C.ar   31  TRP31       0.0946
     51  CD2       20.7440  105.7300   68.0910 C.ar   31  TRP31       0.0152
     52  NE1       21.7920  105.4260   70.0390 N.ar   31  TRP31      -0.2442
     53  CE2       20.7020  105.0420   69.3110 C.ar   31  TRP31       0.0810
     54  CE3       19.7350  105.5130   67.1640 C.ar   31  TRP31       0.0012
     55  CZ2       19.6910  104.1540   69.6270 C.ar   31  TRP31       0.0191
     56  CZ3       18.7340  104.6320   67.4760 C.ar   31  TRP31       0.0001
     57  CH2       18.7150  103.9600   68.6980 C.ar   31  TRP31       0.0015
     58  N         22.5100  110.8650   66.3070 N.am   32  ASN32      -0.1974
     59  CA        23.3970  112.0080   66.2810 C.3    32  ASN32       0.1688
     60  C         22.9120  112.9490   67.3460 C.2    32  ASN32       0.2292
     61  O         23.7130  113.4690   68.1220 O.2    32  ASN32      -0.2864
     62  CB        23.3770  112.6930   64.9340 C.3    32  ASN32       0.1181
     63  CG        23.8640  111.7830   63.8180 C.2    32  ASN32       0.2629
     64  OD1       23.1620  110.8780   63.3870 O.2    32  ASN32      -0.2716
     65  ND2       25.0930  112.0050   63.3640 N.am   32  ASN32      -0.0877
     66  N         22.4880  114.5390   70.2440 N.3    34  GLY34      -0.1210
     67  CA        23.2240  114.2750   71.4640 C.3    34  GLY34       0.1956
     68  C         24.6050  114.8240   71.1910 C.2    34  GLY34       0.2612
     69  O         25.1250  115.6800   71.9120 O.2    34  GLY34      -0.2717
     70  N         25.2070  114.3240   70.1250 N.am   35  SER35      -0.1952
     71  CA        26.4980  114.8350   69.7320 C.3    35  SER35       0.1924
     72  C         26.1590  116.2700   69.3270 C.2    35  SER35       0.2314
     73  O         26.9280  117.1980   69.5530 O.2    35  SER35      -0.2863
     74  CB        27.0430  114.0490   68.5440 C.3    35  SER35       0.2116
     75  OG        26.1850  114.1490   67.4270 O.3    35  SER35      -0.2180
     76  N         25.5050  118.4980   72.1440 N.3    38  ALA38      -0.1245
     77  CA        26.7670  118.9850   72.6670 C.3    38  ALA38       0.1562
     78  C         27.0690  120.3030   71.9820 C.2    38  ALA38       0.2260
     79  O         27.1110  121.3490   72.6210 O.2    38  ALA38      -0.2867
     80  CB        27.8590  117.9970   72.3770 C.3    38  ALA38       0.0290
     81  N         25.3560  122.9500   73.3830 N.3    41  LEU41      -0.1231
     82  CA        25.9330  123.3170   74.6450 C.3    41  LEU41       0.1693
     83  C         27.1190  124.2030   74.3910 C.2    41  LEU41       0.2591
     84  O         27.3090  125.1780   75.0880 O.2    41  LEU41      -0.2718
     85  CB        26.3660  122.0920   75.4270 C.3    41  LEU41       0.0284
     86  CG        26.8490  122.5220   76.8100 C.3    41  LEU41       0.0019
     87  CD1       25.8790  123.5170   77.4410 C.3    41  LEU41       0.0001
     88  CD2       26.9720  121.2870   77.6820 C.3    41  LEU41       0.0001
     89  N         27.9060  123.8760   73.3710 N.am   42  MET42      -0.1979
     90  CA        29.0850  124.6740   73.0360 C.3    42  MET42       0.1605
     91  C         28.6760  125.9920   72.4480 C.2    42  MET42       0.2287
     92  O         28.8650  127.0410   73.0530 O.2    42  MET42      -0.2864
     93  CB        29.9950  123.9380   72.0540 C.3    42  MET42       0.0413
     94  CG        30.4900  122.6080   72.5690 C.3    42  MET42       0.0598
     95  SD        31.5200  122.7260   74.0200 S.3    42  MET42      -0.1393
     96  CE        30.5000  123.6660   75.2380 C.3    42  MET42       0.0692
     97  N         27.4440  128.1020   75.0800 N.3    45  ILE45      -0.1245
     98  CA        28.4690  128.5550   75.9940 C.3    45  ILE45       0.1561
     99  C         29.4700  129.4520   75.3090 C.2    45  ILE45       0.2260
    100  O         29.8840  130.4640   75.8450 O.2    45  ILE45      -0.2867
    101  CB        29.1930  127.3810   76.6430 C.3    45  ILE45       0.0252
    102  CG1       28.2030  126.6030   77.5080 C.3    45  ILE45       0.0019
    103  CG2       30.3110  127.8840   77.5100 C.3    45  ILE45       0.0019
    104  CD1       28.7610  125.3910   78.1900 C.3    45  ILE45       0.0001
    105  N         26.9270  121.1600   81.2290 N.3   190  ALA190     -0.1245
    106  CA        28.1460  120.5540   80.7350 C.3   190  ALA190      0.1562
    107  C         28.6110  119.4340   81.6720 C.2   190  ALA190      0.2260
    108  O         28.9150  118.3200   81.2430 O.2   190  ALA190     -0.2867
    109  CB        29.2090  121.6130   80.6300 C.3   190  ALA190      0.0290
    110  N         26.1580  116.5370   81.7130 N.3   193  THR193     -0.1203
    111  CA        26.3270  115.8610   80.4460 C.3   193  THR193      0.1994
    112  C         27.4760  114.8630   80.5720 C.2   193  THR193      0.2617
    113  O         27.4070  113.7550   80.0490 O.2   193  THR193     -0.2717
    114  CB        26.6720  116.8480   79.3520 C.3   193  THR193      0.1784
    115  OG1       25.5710  117.7450   79.1760 O.3   193  THR193     -0.2211
    116  CG2       26.9810  116.1120   78.0370 C.3   193  THR193      0.0376
    117  N         28.5430  115.2450   81.2680 N.am  194  ILE194     -0.1979
    118  CA        29.6670  114.3240   81.4350 C.3   194  ILE194      0.1595
    119  C         29.1130  113.1340   82.1960 C.2   194  ILE194      0.2287
    120  O         29.2680  111.9890   81.7890 O.2   194  ILE194     -0.2864
    121  CB        30.8140  114.8960   82.2880 C.3   194  ILE194      0.0276
    122  CG1       31.2440  116.2910   81.8060 C.3   194  ILE194      0.0022
    123  CG2       32.0020  113.9580   82.1690 C.3   194  ILE194      0.0022
    124  CD1       32.2110  116.2800   80.6510 C.3   194  ILE194      0.0001
    125  N         27.0240  110.9170   79.8810 N.3   197  LEU197     -0.1245
    126  CA        27.8090  109.9910   79.0700 C.3   197  LEU197      0.1561
    127  C         28.4860  108.9410   79.9100 C.2   197  LEU197      0.2260
    128  O         28.5840  107.7890   79.4950 O.2   197  LEU197     -0.2867
    129  CB        28.8640  110.7020   78.2410 C.3   197  LEU197      0.0270
    130  CG        28.2600  111.4980   77.1040 C.3   197  LEU197      0.0019
    131  CD1       29.3020  111.6880   76.0300 C.3   197  LEU197      0.0001
    132  CD2       27.1050  110.7260   76.5170 C.3   197  LEU197      0.0001
    133  N         26.2190  106.3200   80.4270 N.3   200  LEU200     -0.1231
    134  CA        26.0140  105.6470   79.1590 C.3   200  LEU200      0.1693
    135  C         27.1150  104.6030   78.9950 C.2   200  LEU200      0.2592
    136  O         26.8720  103.4350   79.2530 O.2   200  LEU200     -0.2718
    137  CB        26.0570  106.6420   78.0100 C.3   200  LEU200      0.0284
    138  CG        25.5330  106.0460   76.7190 C.3   200  LEU200      0.0019
    139  CD1       24.0790  105.7110   76.9320 C.3   200  LEU200      0.0001
    140  CD2       25.7050  107.0270   75.5830 C.3   200  LEU200      0.0001
    141  N         28.3160  105.0250   78.5940 N.am  201  HIS201     -0.1976
    142  CA        29.4540  104.1280   78.4170 C.3   201  HIS201      0.1656
    143  C         29.4280  102.8720   79.2890 C.2   201  HIS201      0.2291
    144  O         29.9560  101.8310   78.9020 O.2   201  HIS201     -0.2864
    145  CB        30.7490  104.8630   78.7140 C.3   201  HIS201      0.0771
    146  CG        31.0210  106.0060   77.7940 C.ar  201  HIS201      0.0820
    147  ND1       30.1550  107.0670   77.6540 N.ar  201  HIS201     -0.2267
    148  CD2       32.0660  106.2620   76.9720 C.ar  201  HIS201      0.1154
    149  CE1       30.6550  107.9300   76.7860 C.ar  201  HIS201      0.1986
    150  NE2       31.8140  107.4650   76.3570 N.ar  201  HIS201     -0.2212
    151  N         26.0910  102.0420   73.7180 N.3   205  SER205     -0.1217
    152  CA        25.0260  102.8760   73.1530 C.3   205  SER205      0.1889
    153  C         23.8920  101.9090   72.7850 C.2   205  SER205      0.2288
    154  O         24.1230  100.7100   72.6140 O.2   205  SER205     -0.2866
    155  CB        25.5580  103.6130   71.9330 C.3   205  SER205      0.2089
    156  OG        26.8210  104.1790   72.2440 O.3   205  SER205     -0.2183
    157  N         33.9520  103.4370   67.2650 N.3   220  PHE220     -0.1241
    158  CA        33.3880  104.7600   67.1800 C.3   220  PHE220      0.1605
    159  C         34.0870  105.6760   66.2040 C.2   220  PHE220      0.2264
    160  O         33.4280  106.2800   65.3540 O.2   220  PHE220     -0.2867
    161  CB        33.4080  105.4740   68.5170 C.3   220  PHE220      0.0534
    162  CG        32.7180  106.8000   68.4660 C.ar  220  PHE220     -0.0203
    163  CD1       33.3630  107.9180   67.9420 C.ar  220  PHE220     -0.0042
    164  CD2       31.3660  106.8980   68.7640 C.ar  220  PHE220     -0.0042
    165  CE1       32.6650  109.1020   67.7040 C.ar  220  PHE220     -0.0003
    166  CE2       30.6620  108.0790   68.5300 C.ar  220  PHE220     -0.0003
    167  CZ        31.3120  109.1790   67.9960 C.ar  220  PHE220     -0.0000
    168  N         31.3510  106.7210   63.2250 N.3   224  TYR224     -0.1241
    169  CA        30.6000  107.7790   63.8730 C.3   224  TYR224      0.1605
    170  C         31.2120  109.1330   64.0390 C.2   224  TYR224      0.2264
    171  O         30.4830  110.1180   64.0960 O.2   224  TYR224     -0.2867
    172  CB        30.0460  107.2820   65.1880 C.3   224  TYR224      0.0534
    173  CG        29.1610  106.0880   64.9650 C.ar  224  TYR224     -0.0201
    174  CD1       29.7000  104.8290   64.7570 C.ar  224  TYR224     -0.0009
    175  CD2       27.7860  106.2190   64.8890 C.ar  224  TYR224     -0.0009
    176  CE1       28.9010  103.7430   64.4830 C.ar  224  TYR224      0.0417
    177  CE2       26.9800  105.1400   64.6140 C.ar  224  TYR224      0.0417
    178  CZ        27.5490  103.9070   64.4120 C.ar  224  TYR224      0.1957
    179  OH        26.7700  102.8260   64.1210 O.3   224  TYR224     -0.2866
    180  N         30.3120  110.5840   60.8600 N.3   227  LYS227     -0.1231
    181  CA        28.8690  110.6970   60.9230 C.3   227  LYS227      0.1693
    182  C         28.4680  111.8950   61.7670 C.2   227  LYS227      0.2592
    183  O         27.5280  112.5930   61.4290 O.2   227  LYS227     -0.2718
    184  CB        28.2670  109.4000   61.4600 C.3   227  LYS227      0.0285
    185  CG        26.7670  109.2570   61.2620 C.3   227  LYS227      0.0035
    186  CD        26.3960  107.7840   61.1860 C.3   227  LYS227      0.0206
    187  CE        24.9110  107.5910   61.0820 C.3   227  LYS227      0.1093
    188  NZ        24.2810  108.1510   62.2990 N.3   227  LYS227     -0.1314
    189  N         29.1770  112.1670   62.8510 N.am  228  ASP228     -0.1974
    190  CA        28.8120  113.3290   63.6340 C.3   228  ASP228      0.1709
    191  C         29.1720  114.5840   62.8740 C.2   228  ASP228      0.2293
    192  O         28.3370  115.4560   62.7010 O.2   228  ASP228     -0.2864
    193  CB        29.5170  113.3220   64.9720 C.3   228  ASP228      0.1436
    194  CG        29.0490  112.2040   65.8480 C.2   228  ASP228      0.3671
    195  OD1       28.1970  111.4100   65.4050 O.co2 228  ASP228     -0.2456
    196  OD2       29.5310  112.1130   66.9860 O.co2 228  ASP228     -0.2456
@<TRIPOS>BOND
     1   180   181    1
     2   181   184    1
     3   181   182    1
     4   187   186    1
     5   187   188    1
     6   186   185    1
     7   185   184    1
     8   183   182    2
     9   182   189   am
    10    39    38    2
    11   192   191    2
    12   189   190    1
    13   191   190    1
    14    38    37    1
    15   168   169    1
    16    36    37    1
    17    65    63   am
    18    64    63    2
    19   190   193    1
    20    63    62    1
    21   169   170    1
    22   169   172    1
    23   170   171    2
    24    37    40    1
    25   179   178    1
    26   178   176   ar
    27   178   177   ar
    28   176   174   ar
    29   177   175   ar
    30   174   173   ar
    31   175   173   ar
    32    62    59    1
    33   173   172    1
    34   193   194    1
    35    40    42    1
    36    40    41    1
    37   160   159    2
    38   195   194   ar
    39   194   196   ar
    40   159   158    1
    41    59    58    1
    42    59    60    1
    43    58    46   am
    44    44    45    1
    45    41    43    1
    46    48    45    1
    47    48    49    1
    48    54    56   ar
    49    54    51   ar
    50   158   157    1
    51   158   161    1
    52    46    45    1
    53    46    47    2
    54    34    33    2
    55    60    61    2
    56    75    74    1
    57    56    57   ar
    58   165   163   ar
    59   165   167   ar
    60   163   162   ar
    61   167   166   ar
    62    51    49   ar
    63    51    53   ar
    64    49    50   ar
    65    33    32    1
    66    18    17    2
    67    35    32    1
    68   162   161    1
    69   162   164   ar
    70   166   164   ar
    71    74    71    1
    72    57    55   ar
    73    32    31    1
    74    50    52   ar
    75    53    55   ar
    76    53    52   ar
    77    72    73    2
    78    72    71    1
    79    17    16    1
    80    26    25    2
    81    71    70    1
    82    70    68   am
    83    66    67    1
    84    19    16    1
    85    19    20    1
    86    16    15    1
    87    22    20    1
    88    25    24    1
    89    23    24    1
    90    68    67    1
    91    68    69    2
    92    20    21    1
    93    24    27    1
    94    15    11   am
    95    27    28    1
    96   155   156    1
    97   155   152    1
    98    78    79    2
    99    78    77    1
   100    93    94    1
   101    93    90    1
   102    76    77    1
   103    12    11    2
   104     7     5    1
   105    80    77    1
   106    28    30    1
   107    28    29    1
   108    91    90    1
   109    91    92    2
   110    94    95    1
   111    11    10    1
   112   154   153    2
   113   153   152    1
   114     4     3    2
   115    90    89    1
   116   152   151    1
   117    89    83   am
   118    81    82    1
   119     3     2    1
   120     5     2    1
   121     5     6    1
   122    10     9    1
   123    10    13    1
   124    95    96    1
   125     8     6    1
   126     2     1    1
   127    83    82    1
   128    83    84    2
   129    82    85    1
   130    13    14    1
   131    97    98    1
   132    99   100    2
   133    99    98    1
   134    85    86    1
   135   140   138    1
   136    98   101    1
   137   131   130    1
   138   150   149   ar
   139   150   148   ar
   140   132   130    1
   141   101   102    1
   142   101   103    1
   143   138   139    1
   144   138   137    1
   145   149   147   ar
   146    86    87    1
   147    86    88    1
   148   148   146   ar
   149   130   129    1
   150   102   104    1
   151   147   146   ar
   152   146   145    1
   153   137   134    1
   154   116   114    1
   155   129   126    1
   156   142   141    1
   157   142   145    1
   158   142   143    1
   159   141   135   am
   160   144   143    2
   161   135   134    1
   162   135   136    2
   163   126   125    1
   164   126   127    1
   165   134   133    1
   166   115   114    1
   167   114   111    1
   168   128   127    2
   169   113   112    2
   170   111   112    1
   171   111   110    1
   172   112   117   am
   173   109   106    1
   174   124   122    1
   175   106   105    1
   176   106   107    1
   177   108   107    2
   178   117   118    1
   179   118   119    1
   180   118   121    1
   181   120   119    2
   182   122   121    1
   183   123   121    1
