@<TRIPOS>MOLECULE
tmp/3bcdA00.pdb
 206 201 0 0 0
SMALL
GASTEIGER

@<TRIPOS>ATOM
      1  N         31.2250   11.5070   14.0740 N.3   117  TRP117     -0.1241
      2  CA        31.7320   12.7530   13.5020 C.3   117  TRP117      0.1605
      3  C         31.4500   13.9710   14.4280 C.2   117  TRP117      0.2264
      4  O         32.3740   14.6570   14.8660 O.2   117  TRP117     -0.2867
      5  CB        31.2550   12.9610   12.0290 C.3   117  TRP117      0.0550
      6  CG        32.0970   13.9850   11.3310 C.ar  117  TRP117      0.0003
      7  CD1       31.7830   15.3040   11.1230 C.ar  117  TRP117      0.0946
      8  CD2       33.4360   13.8110   10.8170 C.ar  117  TRP117      0.0152
      9  NE1       32.8320   15.9380   10.4940 N.ar  117  TRP117     -0.2442
     10  CE2       33.8530   15.0430   10.3110 C.ar  117  TRP117      0.0810
     11  CE3       34.3090   12.7230   10.7400 C.ar  117  TRP117      0.0012
     12  CZ2       35.0760   15.2160    9.7360 C.ar  117  TRP117      0.0191
     13  CZ3       35.5320   12.9010   10.1710 C.ar  117  TRP117      0.0001
     14  CH2       35.9080   14.1300    9.6650 C.ar  117  TRP117      0.0015
     15  N         41.5170   12.9870   11.6040 N.3   170  TYR170     -0.1241
     16  CA        42.0040   12.6120   10.3260 C.3   170  TYR170      0.1605
     17  C         42.9090   13.7050    9.6860 C.2   170  TYR170      0.2264
     18  O         43.5270   13.4630    8.6830 O.2   170  TYR170     -0.2867
     19  CB        40.8180   12.1690    9.4500 C.3   170  TYR170      0.0534
     20  CG        40.1650   10.9520   10.0260 C.ar  170  TYR170     -0.0201
     21  CD1       38.9850   11.0260   10.7650 C.ar  170  TYR170     -0.0009
     22  CD2       40.7900    9.7330    9.9220 C.ar  170  TYR170     -0.0009
     23  CE1       38.4410    9.8880   11.3520 C.ar  170  TYR170      0.0417
     24  CE2       40.2530    8.5990   10.5250 C.ar  170  TYR170      0.0417
     25  CZ        39.0820    8.6640   11.2170 C.ar  170  TYR170      0.1957
     26  OH        38.5910    7.4540   11.7470 O.3   170  TYR170     -0.2866
     27  N         46.3080    6.9200   10.8280 N.3   216  VAL216     -0.1245
     28  CA        46.1210    7.6250    9.6000 C.3   216  VAL216      0.1561
     29  C         47.4980    7.8760    8.9930 C.2   216  VAL216      0.2260
     30  O         48.1350    8.8840    9.3440 O.2   216  VAL216     -0.2867
     31  CB        45.3970    8.9780    9.8290 C.3   216  VAL216      0.0252
     32  CG1       45.3350    9.7040    8.5710 C.3   216  VAL216      0.0019
     33  CG2       43.9820    8.7250   10.3880 C.3   216  VAL216      0.0019
     34  N         48.6300   10.7360    4.5330 N.3   219  HIS219     -0.1241
     35  CA        49.0210   12.1070    4.2780 C.3   219  HIS219      0.1621
     36  C         49.4300   12.8190    5.5820 C.2   219  HIS219      0.2264
     37  O         49.3430   12.2500    6.6730 O.2   219  HIS219     -0.2867
     38  CB        47.8360   12.8460    3.7070 C.3   219  HIS219      0.0745
     39  CG        46.6380   12.7510    4.5850 C.ar  219  HIS219      0.0817
     40  ND1       45.6470   11.7910    4.4000 N.ar  219  HIS219     -0.2268
     41  CD2       46.3250   13.4030    5.7280 C.ar  219  HIS219      0.1154
     42  CE1       44.7510   11.9130    5.3660 C.ar  219  HIS219      0.1986
     43  NE2       45.1430   12.8760    6.1860 N.ar  219  HIS219     -0.2212
     44  N         45.6980    5.7230   -7.4970 N.3   298  GLU298     -0.1245
     45  CA        44.9380    5.9570   -6.2760 C.3   298  GLU298      0.1567
     46  C         45.8510    6.2810   -5.1440 C.2   298  GLU298      0.2260
     47  O         45.4190    6.2300   -4.0510 O.2   298  GLU298     -0.2867
     48  CB        44.0910    4.7330   -5.8920 C.3   298  GLU298      0.0388
     49  CG        42.6450    4.9100   -6.3250 C.3   298  GLU298      0.1160
     50  CD        41.7500    3.7320   -6.0880 C.2   298  GLU298      0.3649
     51  OE1       42.1090    2.7690   -5.3530 O.co2 298  GLU298     -0.2457
     52  OE2       40.6710    3.7940   -6.6750 O.co2 298  GLU298     -0.2457
     53  N         45.1280   11.2060   -2.5060 N.3   301  LEU301     -0.1231
     54  CA        43.7710   11.4720   -1.9560 C.3   301  LEU301      0.1693
     55  C         43.6240   12.9570   -1.5060 C.2   301  LEU301      0.2591
     56  O         42.7830   13.6590   -1.9930 O.2   301  LEU301     -0.2718
     57  CB        43.4510   10.5310   -0.7970 C.3   301  LEU301      0.0284
     58  CG        42.0510   10.5080   -0.1700 C.3   301  LEU301      0.0019
     59  CD1       40.8850   10.1710   -1.1850 C.3   301  LEU301      0.0001
     60  CD2       42.0030    9.5400    1.0160 C.3   301  LEU301      0.0001
     61  N         44.4230   13.4100   -0.5470 N.am  302  MET302     -0.1979
     62  CA        44.3180   14.8230   -0.0230 C.3   302  MET302      0.1605
     63  C         45.5880   15.1010    0.7100 C.2   302  MET302      0.2287
     64  O         46.3340   14.1730    1.0110 O.2   302  MET302     -0.2864
     65  CB        43.1870   14.9200    0.9690 C.3   302  MET302      0.0413
     66  CG        43.1880   13.7240    1.9780 C.3   302  MET302      0.0598
     67  SD        41.9920   13.7850    3.3540 S.3   302  MET302     -0.1393
     68  CE        40.4720   13.2950    2.4870 C.3   302  MET302      0.0692
     69  N         43.3100    0.1260   13.2910 N.3   334  ARG334     -0.1245
     70  CA        42.5700    0.2980   12.0750 C.3   334  ARG334      0.1563
     71  C         43.4770    1.1190   11.1390 C.2   334  ARG334      0.2260
     72  O         43.9730    2.2030   11.5410 O.2   334  ARG334     -0.2867
     73  CB        41.2630    1.0230   12.2880 C.3   334  ARG334      0.0307
     74  CG        40.8010    1.8020   10.9980 C.3   334  ARG334      0.0489
     75  CD        39.4060    2.1960   11.1390 C.3   334  ARG334      0.2205
     76  NE        38.7080    2.7950    9.9960 N.pl3 334  ARG334     -0.0865
     77  CZ        38.9500    4.0000    9.4850 C.cat 334  ARG334      0.5346
     78  NH1       39.9650    4.6860    9.8630 N.pl3 334  ARG334      0.1354
     79  NH2       38.1690    4.5160    8.5680 N.pl3 334  ARG334      0.1354
     80  N         43.6300    3.4970    8.0980 N.3   336  ASP336     -0.1225
     81  CA        42.7470    4.4030    7.4140 C.3   336  ASP336      0.1805
     82  C         43.1740    4.4870    5.9600 C.2   336  ASP336      0.2597
     83  O         44.4040    4.5310    5.6640 O.2   336  ASP336     -0.2718
     84  CB        42.9220    5.7400    8.0320 C.3   336  ASP336      0.1424
     85  CG        42.0510    6.7890    7.3920 C.2   336  ASP336      0.3668
     86  OD1       40.8420    6.6790    7.5470 O.co2 336  ASP336     -0.2456
     87  OD2       42.5870    7.7120    6.7360 O.co2 336  ASP336     -0.2456
     88  N         42.1880    4.5040    5.0540 N.am  337  ALA337     -0.1979
     89  CA        42.4390    4.7920    3.6220 C.3   337  ALA337      0.1597
     90  C         43.4630    3.8160    3.0610 C.2   337  ALA337      0.2287
     91  O         44.3900    4.2150    2.3360 O.2   337  ALA337     -0.2864
     92  CB        42.9430    6.2720    3.4380 C.3   337  ALA337      0.0319
     93  N         43.7740    1.7120    0.8870 N.3   339  LYS339     -0.1231
     94  CA        44.0000    1.4330   -0.5240 C.3   339  LYS339      0.1693
     95  C         44.7580    2.5490   -1.2360 C.2   339  LYS339      0.2592
     96  O         45.2690    2.3450   -2.3550 O.2   339  LYS339     -0.2718
     97  CB        42.6810    0.9910   -1.2340 C.3   339  LYS339      0.0285
     98  CG        41.7550    2.1260   -1.5590 C.3   339  LYS339      0.0035
     99  CD        40.4030    1.6970   -2.2720 C.3   339  LYS339      0.0206
    100  CE        39.5790    2.9410   -2.5700 C.3   339  LYS339      0.1093
    101  NZ        38.3510    2.6350   -3.3510 N.3   339  LYS339     -0.1314
    102  N         44.8980    3.7200   -0.5880 N.am  340  HIS340     -0.1976
    103  CA        45.7400    4.8130   -1.1280 C.3   340  HIS340      0.1656
    104  C         47.1510    4.8760   -0.6250 C.2   340  HIS340      0.2291
    105  O         47.7940    5.9320   -0.6790 O.2   340  HIS340     -0.2864
    106  CB        45.0820    6.1700   -0.8520 C.3   340  HIS340      0.0771
    107  CG        43.6380    6.2050   -1.1970 C.ar  340  HIS340      0.0820
    108  ND1       43.1880    6.4200   -2.4800 N.ar  340  HIS340     -0.2267
    109  CD2       42.5300    6.0560   -0.4320 C.ar  340  HIS340      0.1154
    110  CE1       41.8660    6.3880   -2.4970 C.ar  340  HIS340      0.1986
    111  NE2       41.4420    6.1640   -1.2670 N.ar  340  HIS340     -0.2212
    112  N         40.6670    0.0970    6.2570 N.3   366  GLU366     -0.1245
    113  CA        39.5050    0.7060    5.6080 C.3   366  GLU366      0.1567
    114  C         39.8870    0.7400    4.1580 C.2   366  GLU366      0.2260
    115  O         40.6450    1.6490    3.7360 O.2   366  GLU366     -0.2867
    116  CB        39.2100    2.1320    6.0210 C.3   366  GLU366      0.0388
    117  CG        37.8590    2.7180    5.3350 C.3   366  GLU366      0.1160
    118  CD        38.0810    4.1450    4.9090 C.2   366  GLU366      0.3649
    119  OE1       39.2870    4.4550    4.8770 O.co2 366  GLU366     -0.2457
    120  OE2       37.1100    4.9410    4.5770 O.co2 366  GLU366     -0.2457
    121  N         37.6650    0.9270    0.9380 N.3   368  TRP368     -0.1227
    122  CA        36.3070    1.2480    0.6280 C.3   368  TRP368      0.1737
    123  C         36.0770    0.8120   -0.8420 C.2   368  TRP368      0.2595
    124  O         36.3350    1.5750   -1.7710 O.2   368  TRP368     -0.2718
    125  CB        36.0100    2.7290    0.8950 C.3   368  TRP368      0.0564
    126  CG        34.5240    3.0600    0.7510 C.ar  368  TRP368      0.0003
    127  CD1       33.6630    2.4520   -0.0690 C.ar  368  TRP368      0.0946
    128  CD2       33.7620    4.0560    1.4640 C.ar  368  TRP368      0.0152
    129  NE1       32.4010    2.9880    0.0610 N.ar  368  TRP368     -0.2442
    130  CE2       32.4400    3.9820    0.9910 C.ar  368  TRP368      0.0810
    131  CE3       34.0650    4.9970    2.4550 C.ar  368  TRP368      0.0012
    132  CZ2       31.4240    4.8160    1.4520 C.ar  368  TRP368      0.0191
    133  CZ3       33.0300    5.8170    2.9390 C.ar  368  TRP368      0.0001
    134  CH2       31.7400    5.7260    2.4200 C.ar  368  TRP368      0.0015
    135  N         35.6300   -0.4580   -0.9960 N.am  369  VAL369     -0.1966
    136  CA        35.5050   -1.2050   -2.2130 C.3   369  VAL369      0.1727
    137  C         34.2390   -2.0470   -2.0570 C.2   369  VAL369      0.2616
    138  O         34.1920   -2.8210   -1.1300 O.2   369  VAL369     -0.2715
    139  CB        36.6860   -2.2590   -2.3820 C.3   369  VAL369      0.0290
    140  CG1       36.5700   -2.9240   -3.6720 C.3   369  VAL369      0.0023
    141  CG2       38.0990   -1.6060   -2.2810 C.3   369  VAL369      0.0023
    142  N         33.2080   -1.8570   -2.8760 N.am  370  GLU370     -0.1963
    143  CA        31.8740   -2.4730   -2.6180 C.3   370  GLU370      0.1733
    144  C         31.5060   -3.7980   -3.3100 C.2   370  GLU370      0.2616
    145  O         30.4630   -4.3880   -3.0100 O.2   370  GLU370     -0.2715
    146  CB        30.7730   -1.4760   -2.9540 C.3   370  GLU370      0.0429
    147  CG        30.2350   -0.7820   -1.7160 C.3   370  GLU370      0.1163
    148  CD        29.3590    0.3870   -2.0620 C.2   370  GLU370      0.3649
    149  OE1       29.9530    1.4200   -2.4530 O.co2 370  GLU370     -0.2457
    150  OE2       28.1120    0.2680   -1.9470 O.co2 370  GLU370     -0.2457
    151  N         32.3460   -4.2330   -4.2370 N.am  371  ASP371     -0.1971
    152  CA        32.2640   -5.5260   -4.8520 C.3   371  ASP371      0.1709
    153  C         33.1910   -6.5020   -4.1480 C.2   371  ASP371      0.2293
    154  O         34.3350   -6.1790   -3.8840 O.2   371  ASP371     -0.2864
    155  CB        32.7230   -5.4060   -6.3220 C.3   371  ASP371      0.1436
    156  CG        32.5910   -6.7510   -7.1020 C.2   371  ASP371      0.3671
    157  OD1       33.6180   -7.4770   -7.2410 O.co2 371  ASP371     -0.2456
    158  OD2       31.4400   -7.0680   -7.5290 O.co2 371  ASP371     -0.2456
    159  N         31.3400    6.6150   10.8710 N.3   432  HIS432     -0.1226
    160  CA        31.4340    8.0820   10.8620 C.3   432  HIS432      0.1752
    161  C         31.4090    8.7340    9.4840 C.2   432  HIS432      0.2596
    162  O         31.2960    9.9720    9.3690 O.2   432  HIS432     -0.2718
    163  CB        32.7030    8.5020   11.5900 C.3   432  HIS432      0.0759
    164  CG        33.9430    7.9240   11.0050 C.ar  432  HIS432      0.0818
    165  ND1       34.2760    6.5870   11.1440 N.ar  432  HIS432     -0.2268
    166  CD2       34.9300    8.4970   10.2730 C.ar  432  HIS432      0.1154
    167  CE1       35.4060    6.3630   10.5050 C.ar  432  HIS432      0.1986
    168  NE2       35.8230    7.5030    9.9670 N.ar  432  HIS432     -0.2212
    169  N         31.5590    7.9030    8.4380 N.am  433  ASP433     -0.1974
    170  CA        31.5320    8.3440    7.0300 C.3   433  ASP433      0.1709
    171  C         30.2080    8.0230    6.4120 C.2   433  ASP433      0.2293
    172  O         29.6810    8.8300    5.6540 O.2   433  ASP433     -0.2864
    173  CB        32.6660    7.7340    6.1650 C.3   433  ASP433      0.1436
    174  CG        34.1090    8.1740    6.5740 C.2   433  ASP433      0.3671
    175  OD1       34.3810    9.3370    6.9090 O.co2 433  ASP433     -0.2456
    176  OD2       35.0010    7.3020    6.5030 O.co2 433  ASP433     -0.2456
    177  N         26.5010   10.5060    8.7620 N.3   436  ARG436     -0.1245
    178  CA        26.8220   11.7820    9.3540 C.3   436  ARG436      0.1563
    179  C         25.8190   12.8340    8.9020 C.2   436  ARG436      0.2260
    180  O         25.1060   12.6600    7.9080 O.2   436  ARG436     -0.2867
    181  CB        28.2760   12.1260    9.1030 C.3   436  ARG436      0.0307
    182  CG        28.6450   12.4530    7.7060 C.3   436  ARG436      0.0489
    183  CD        29.8580   13.3380    7.6600 C.3   436  ARG436      0.2205
    184  NE        31.0470   12.4970    7.7480 N.pl3 436  ARG436     -0.0865
    185  CZ        32.2820   12.8960    7.4370 C.cat 436  ARG436      0.5346
    186  NH1       32.4860   14.1440    7.0700 N.pl3 436  ARG436      0.1354
    187  NH2       33.3380   12.0540    7.5140 N.pl3 436  ARG436      0.1354
    188  N         29.0590   10.7310    2.7040 N.3   441  TYR441     -0.1227
    189  CA        29.5140   10.1350    1.4300 C.3   441  TYR441      0.1736
    190  C         28.5070    9.1300    0.8000 C.2   441  TYR441      0.2596
    191  O         28.5680    8.8180   -0.4110 O.2   441  TYR441     -0.2718
    192  CB        30.8670    9.4470    1.6340 C.3   441  TYR441      0.0548
    193  CG        31.9040   10.3890    2.1330 C.ar  441  TYR441     -0.0200
    194  CD1       32.0640   10.6190    3.4860 C.ar  441  TYR441     -0.0009
    195  CD2       32.6720   11.1300    1.2420 C.ar  441  TYR441     -0.0009
    196  CE1       33.0060   11.5440    3.9510 C.ar  441  TYR441      0.0417
    197  CE2       33.5960   12.0570    1.6930 C.ar  441  TYR441      0.0417
    198  CZ        33.7650   12.2610    3.0530 C.ar  441  TYR441      0.1957
    199  OH        34.7030   13.1910    3.4880 O.3   441  TYR441     -0.2866
    200  N         27.6030    8.6210    1.6350 N.am  442  THR442     -0.1953
    201  CA        26.5290    7.7400    1.1810 C.3   442  THR442      0.1897
    202  C         25.2650    7.9950    2.0560 C.2   442  THR442      0.2313
    203  O         25.2480    8.8170    2.9510 O.2   442  THR442     -0.2863
    204  CB        27.0200    6.2800    1.2740 C.3   442  THR442      0.1794
    205  OG1       25.9800    5.3460    0.8950 O.3   442  THR442     -0.2208
    206  CG2       27.4750    5.9800    2.6760 C.3   442  THR442      0.0378
@<TRIPOS>BOND
     1   158   156   ar
     2    44    45    1
     3   157   156   ar
     4   156   155    1
     5    52    50   ar
     6    49    50    1
     7    49    48    1
     8   155   152    1
     9    45    48    1
    10    45    46    1
    11    50    51   ar
    12    46    47    2
    13   152   151    1
    14   152   153    1
    15   151   144   am
    16   153   154    2
    17   140   139    1
    18   101   100    1
    19   144   145    2
    20   144   143    1
    21   146   143    1
    22   146   147    1
    23   142   143    1
    24   142   137   am
    25   100    99    1
    26    53    54    1
    27   110   108   ar
    28   110   111   ar
    29   108   107   ar
    30   149   148   ar
    31   139   141    1
    32   139   136    1
    33    96    95    2
    34    99    98    1
    35   136   137    1
    36   136   135    1
    37   148   150   ar
    38   148   147    1
    39   137   138    2
    40    56    55    2
    41    54    55    1
    42    54    57    1
    43   124   123    2
    44    98    97    1
    45    55    61   am
    46   111   109   ar
    47    95   102   am
    48    95    94    1
    49    97    94    1
    50   107   106    1
    51   107   109   ar
    52    59    58    1
    53   103   106    1
    54   103   104    1
    55   103   102    1
    56   135   123   am
    57   123   122    1
    58    57    58    1
    59   105   104    2
    60    61    62    1
    61    94    93    1
    62   191   190    2
    63    58    60    1
    64   127   129   ar
    65   127   126   ar
    66    62    63    1
    67    62    65    1
    68   129   130   ar
    69   122   125    1
    70   122   121    1
    71    63    64    2
    72   126   125    1
    73   126   128   ar
    74   190   189    1
    75   190   200   am
    76   205   204    1
    77    65    66    1
    78   130   132   ar
    79   130   128   ar
    80   201   204    1
    81   201   200    1
    82   201   202    1
    83   195   197   ar
    84   195   193   ar
    85   204   206    1
    86   189   192    1
    87   189   188    1
    88   132   134   ar
    89   128   131   ar
    90   192   193    1
    91   197   198   ar
    92    66    67    1
    93   202   203    2
    94   193   194   ar
    95    91    90    2
    96   134   133   ar
    97   131   133   ar
    98    68    67    1
    99   198   199    1
   100   198   196   ar
   101    90    89    1
   102    92    89    1
   103   194   196   ar
   104    89    88    1
   105    38    35    1
   106    38    39    1
   107   115   114    2
   108   114   113    1
   109    35    34    1
   110    35    36    1
   111    40    39   ar
   112    40    42   ar
   113   120   118   ar
   114    39    41   ar
   115   119   118   ar
   116   118   117    1
   117    88    82   am
   118   117   116    1
   119    42    43   ar
   120    36    37    2
   121   113   116    1
   122   113   112    1
   123   172   171    2
   124    83    82    2
   125    41    43   ar
   126    82    81    1
   127   173   174    1
   128   173   170    1
   129   171   170    1
   130   176   174   ar
   131   174   175   ar
   132    87    85   ar
   133   170   169    1
   134   186   185    1
   135    85    86   ar
   136    85    84    1
   137    81    84    1
   138    81    80    1
   139   185   187    1
   140   185   184    2
   141   183   182    1
   142   183   184    1
   143   182   181    1
   144   180   179    2
   145   169   161   am
   146    79    77    1
   147    32    31    1
   148    18    17    2
   149   177   178    1
   150   179   178    1
   151    29    30    2
   152    29    28    1
   153   181   178    1
   154   162   161    2
   155    19    20    1
   156    19    16    1
   157   161   160    1
   158    77    78    1
   159    77    76    2
   160    28    31    1
   161    28    27    1
   162    14    12   ar
   163    14    13   ar
   164    17    16    1
   165    12    10   ar
   166    31    33    1
   167    22    20   ar
   168    22    24   ar
   169   168   166   ar
   170   168   167   ar
   171    76    75    1
   172    20    21   ar
   173    13    11   ar
   174   166   164   ar
   175    10     9   ar
   176    10     8   ar
   177    16    15    1
   178     9     7   ar
   179   167   165   ar
   180    24    25   ar
   181    11     8   ar
   182    21    23   ar
   183     8     6   ar
   184   160   159    1
   185   160   163    1
   186    74    75    1
   187    74    73    1
   188   164   165   ar
   189   164   163    1
   190     7     6   ar
   191    71    72    2
   192    71    70    1
   193    25    23   ar
   194    25    26    1
   195     6     5    1
   196     5     2    1
   197    70    73    1
   198    70    69    1
   199     2     1    1
   200     2     3    1
   201     3     4    2
