@<TRIPOS>MOLECULE
tmp/3bcdA02.pdb
 147 147 0 0 0
SMALL
GASTEIGER

@<TRIPOS>ATOM
      1  N         27.2050    7.4380    8.0710 N.3   435  ASP435     -0.1225
      2  CA        26.1390    8.1220    8.8210 C.3   435  ASP435      0.1805
      3  C         26.6640    9.4010    9.4740 C.2   435  ASP435      0.2597
      4  O         27.1920    9.3980   10.6000 O.2   435  ASP435     -0.2718
      5  CB        25.5890    7.2230    9.8870 C.3   435  ASP435      0.1424
      6  CG        24.4000    7.8480   10.6820 C.2   435  ASP435      0.3668
      7  OD1       23.8100    8.8690   10.2920 O.co2 435  ASP435     -0.2456
      8  OD2       24.0250    7.2540   11.7110 O.co2 435  ASP435     -0.2456
      9  N         26.5010   10.5060    8.7620 N.am  436  ARG436     -0.1979
     10  CA        26.8220   11.7820    9.3540 C.3   436  ARG436      0.1597
     11  C         25.8190   12.8340    8.9020 C.2   436  ARG436      0.2287
     12  O         25.1060   12.6600    7.9080 O.2   436  ARG436     -0.2864
     13  CB        28.2760   12.1260    9.1030 C.3   436  ARG436      0.0334
     14  CG        28.6450   12.4530    7.7060 C.3   436  ARG436      0.0492
     15  CD        29.8580   13.3380    7.6600 C.3   436  ARG436      0.2205
     16  NE        31.0470   12.4970    7.7480 N.pl3 436  ARG436     -0.0865
     17  CZ        32.2820   12.8960    7.4370 C.cat 436  ARG436      0.5346
     18  NH1       32.4860   14.1440    7.0700 N.pl3 436  ARG436      0.1354
     19  NH2       33.3380   12.0540    7.5140 N.pl3 436  ARG436      0.1354
     20  N         24.2110    7.2700    1.7930 N.3   443  VAL443     -0.1231
     21  CA        23.0460    7.2500    2.6270 C.3   443  VAL443      0.1692
     22  C         23.2960    6.3180    3.8270 C.2   443  VAL443      0.2593
     23  O         23.8320    5.2060    3.6750 O.2   443  VAL443     -0.2718
     24  CB        21.8300    6.7760    1.7590 C.3   443  VAL443      0.0266
     25  CG1       21.5020    5.3070    1.9880 C.3   443  VAL443      0.0020
     26  CG2       20.6600    7.6210    2.0240 C.3   443  VAL443      0.0020
     27  N         22.9110    6.7580    5.0280 N.am  444  SER444     -0.1938
     28  CA        22.9710    5.9070    6.2270 C.3   444  SER444      0.2055
     29  C         21.9450    4.7940    6.1570 C.2   444  SER444      0.2643
     30  O         21.0400    4.7940    5.2880 O.2   444  SER444     -0.2714
     31  CB        22.7460    6.7340    7.4840 C.3   444  SER444      0.2130
     32  OG        21.4380    7.2700    7.5400 O.3   444  SER444     -0.2179
     33  N         22.0700    3.8240    7.0580 N.am  445  ILE445     -0.1963
     34  CA        21.1400    2.6600    7.0560 C.3   445  ILE445      0.1727
     35  C         20.0210    3.0700    7.9780 C.2   445  ILE445      0.2616
     36  O         19.9470    2.6420    9.0850 O.2   445  ILE445     -0.2715
     37  CB        21.8220    1.3810    7.5620 C.3   445  ILE445      0.0290
     38  CG1       22.9320    0.9620    6.6130 C.3   445  ILE445      0.0022
     39  CG2       20.7690    0.1470    7.7520 C.3   445  ILE445      0.0023
     40  CD1       22.5800    1.1280    5.1700 C.3   445  ILE445      0.0001
     41  N         19.1960    4.0010    7.5320 N.am  446  TYR446     -0.1960
     42  CA        18.1800    4.6250    8.3910 C.3   446  TYR446      0.1771
     43  C         16.9000    3.7880    8.6100 C.2   446  TYR446      0.2620
     44  O         15.9780    4.2540    9.2460 O.2   446  TYR446     -0.2715
     45  CB        17.7820    5.9940    7.7990 C.3   446  TYR446      0.0574
     46  CG        17.2650    5.8880    6.3730 C.ar  446  TYR446     -0.0198
     47  CD1       18.0380    6.2790    5.2950 C.ar  446  TYR446     -0.0009
     48  CD2       16.0170    5.3660    6.1210 C.ar  446  TYR446     -0.0009
     49  CE1       17.5800    6.1430    4.0150 C.ar  446  TYR446      0.0417
     50  CE2       15.5330    5.2570    4.8640 C.ar  446  TYR446      0.0417
     51  CZ        16.3020    5.6310    3.8020 C.ar  446  TYR446      0.1957
     52  OH        15.7610    5.4570    2.5300 O.3   446  TYR446     -0.2866
     53  N         16.8030    2.5990    8.0570 N.am  447  SER447     -0.1936
     54  CA        15.6070    1.7740    8.1890 C.3   447  SER447      0.2055
     55  C         16.0890    0.3450    8.1740 C.2   447  SER447      0.2643
     56  O         16.9840    0.0600    7.3870 O.2   447  SER447     -0.2714
     57  CB        14.7050    1.9570    6.9890 C.3   447  SER447      0.2130
     58  OG        13.6100    1.0520    7.0340 O.3   447  SER447     -0.2179
     59  N         15.5110   -0.5200    9.0170 N.am  448  ARG448     -0.1963
     60  CA        15.9460   -1.9230    9.1550 C.3   448  ARG448      0.1729
     61  C         17.3530   -2.1310    9.7050 C.2   448  ARG448      0.2616
     62  O         17.9940   -3.1600    9.5020 O.2   448  ARG448     -0.2715
     63  CB        15.7390   -2.6550    7.8390 C.3   448  ARG448      0.0348
     64  CG        14.2380   -2.6170    7.4160 C.3   448  ARG448      0.0492
     65  CD        13.9410   -3.5860    6.3120 C.3   448  ARG448      0.2205
     66  NE        12.5290   -3.5530    5.9520 N.pl3 448  ARG448     -0.0865
     67  CZ        11.9470   -2.6880    5.1320 C.cat 448  ARG448      0.5346
     68  NH1       12.6510   -1.7240    4.5450 N.pl3 448  ARG448      0.1354
     69  NH2       10.6240   -2.7730    4.9010 N.pl3 448  ARG448      0.1354
     70  N         17.7900   -1.1650   10.4880 N.am  449  LYS449     -0.1963
     71  CA        19.1050   -1.2000   11.0470 C.3   449  LYS449      0.1728
     72  C         19.2970   -2.3410   12.0770 C.2   449  LYS449      0.2616
     73  O         20.4190   -2.8930   12.1770 O.2   449  LYS449     -0.2715
     74  CB        19.4770    0.1730   11.6080 C.3   449  LYS449      0.0311
     75  CG        20.8600    0.1430   12.2600 C.3   449  LYS449      0.0038
     76  CD        21.4420    1.4710   12.6000 C.3   449  LYS449      0.0206
     77  CE        22.3010    2.0430   11.5310 C.3   449  LYS449      0.1093
     78  NZ        22.4910    3.5500   11.7200 N.3   449  LYS449     -0.1314
     79  N         18.2080   -2.7220   12.7930 N.am  450  TYR450     -0.1960
     80  CA        18.2550   -3.7840   13.8300 C.3   450  TYR450      0.1771
     81  C         18.3950   -5.1750   13.1580 C.2   450  TYR450      0.2619
     82  O         19.0330   -6.0590   13.7230 O.2   450  TYR450     -0.2715
     83  CB        17.0110   -3.8010   14.7800 C.3   450  TYR450      0.0574
     84  CG        16.8420   -2.6510   15.8080 C.ar  450  TYR450     -0.0198
     85  CD1       15.9130   -1.5850   15.5970 C.ar  450  TYR450     -0.0009
     86  CD2       17.5870   -2.6260   16.9960 C.ar  450  TYR450     -0.0009
     87  CE1       15.7380   -0.5690   16.5620 C.ar  450  TYR450      0.0417
     88  CE2       17.4240   -1.6070   17.9360 C.ar  450  TYR450      0.0417
     89  CZ        16.5250   -0.5970   17.7200 C.ar  450  TYR450      0.1957
     90  OH        16.4610    0.4000   18.6570 O.3   450  TYR450     -0.2866
     91  N         17.6750   -5.3920   12.0360 N.am  451  GLN451     -0.1977
     92  CA        17.7780   -6.5920   11.1970 C.3   451  GLN451      0.1601
     93  C         19.2410   -6.7770   10.7550 C.2   451  GLN451      0.2287
     94  O         19.7970   -7.8450   10.7980 O.2   451  GLN451     -0.2864
     95  CB        16.8620   -6.4320    9.9810 C.3   451  GLN451      0.0394
     96  CG        15.3040   -6.6890   10.2250 C.3   451  GLN451      0.0908
     97  CD        14.4920   -5.4080   10.5330 C.2   451  GLN451      0.2608
     98  OE1       15.0180   -4.4390   11.0610 O.2   451  GLN451     -0.2717
     99  NE2       13.1910   -5.4420   10.2380 N.am  451  GLN451     -0.0878
    100  N         21.6040    7.5580   18.8410 N.3   474  TRP474     -0.1227
    101  CA        20.3240    7.3310   18.1920 C.3   474  TRP474      0.1737
    102  C         19.3230    6.5430   19.0380 C.2   474  TRP474      0.2595
    103  O         18.2190    6.3130   18.5830 O.2   474  TRP474     -0.2718
    104  CB        20.4720    6.6480   16.8330 C.3   474  TRP474      0.0564
    105  CG        21.2230    7.3320   15.7820 C.ar  474  TRP474      0.0003
    106  CD1       22.1520    6.7590   14.9940 C.ar  474  TRP474      0.0946
    107  CD2       21.0530    8.6800   15.2970 C.ar  474  TRP474      0.0152
    108  NE1       22.5820    7.6500   14.0470 N.ar  474  TRP474     -0.2442
    109  CE2       21.9350    8.8480   14.2370 C.ar  474  TRP474      0.0810
    110  CE3       20.2750    9.7630   15.6860 C.ar  474  TRP474      0.0012
    111  CZ2       22.0610   10.0370   13.5660 C.ar  474  TRP474      0.0191
    112  CZ3       20.4180   10.9780   15.0050 C.ar  474  TRP474      0.0001
    113  CH2       21.2920   11.1020   13.9690 C.ar  474  TRP474      0.0015
    114  N         19.6710    6.1580   20.2530 N.am  475  GLU475     -0.1965
    115  CA        18.6840    5.5930   21.1730 C.3   475  GLU475      0.1733
    116  C         18.2820    4.1740   20.8160 C.2   475  GLU475      0.2616
    117  O         17.1060    3.8040   20.9670 O.2   475  GLU475     -0.2715
    118  CB        17.3900    6.4240   21.2280 C.3   475  GLU475      0.0429
    119  CG        17.5050    7.9240   21.7200 C.3   475  GLU475      0.1163
    120  CD        17.1320    8.1710   23.2010 C.2   475  GLU475      0.3649
    121  OE1       16.1350    7.5570   23.7010 O.co2 475  GLU475     -0.2457
    122  OE2       17.8380    8.9970   23.8530 O.co2 475  GLU475     -0.2457
    123  N         19.2510    3.3950   20.3310 N.am  476  MET476     -0.1977
    124  CA        19.0200    1.9990   19.9640 C.3   476  MET476      0.1605
    125  C         19.5140    0.9620   20.9610 C.2   476  MET476      0.2287
    126  O         19.2280   -0.1890   20.7890 O.2   476  MET476     -0.2864
    127  CB        19.6680    1.7390   18.6320 C.3   476  MET476      0.0413
    128  CG        19.1710    2.6820   17.5020 C.3   476  MET476      0.0598
    129  SD        19.8110    2.4360   15.8340 S.3   476  MET476     -0.1393
    130  CE        19.2490    0.7230   15.4870 C.3   476  MET476      0.0692
    131  N          8.8970   -3.2520    9.4320 N.3   574  GLU574     -0.1231
    132  CA        10.2200   -2.5920    9.4400 C.3   574  GLU574      0.1699
    133  C         10.7560   -2.6040   10.8590 C.2   574  GLU574      0.2592
    134  O         11.9040   -2.9650   11.1620 O.2   574  GLU574     -0.2718
    135  CB        10.1090   -1.1420    8.9420 C.3   574  GLU574      0.0402
    136  CG        11.3250   -0.3190    9.2880 C.3   574  GLU574      0.1161
    137  CD        11.2220    1.1110    8.8420 C.2   574  GLU574      0.3649
    138  OE1       10.1480    1.4640    8.2800 O.co2 574  GLU574     -0.2457
    139  OE2       12.1970    1.8650    9.0750 O.co2 574  GLU574     -0.2457
    140  N          9.8590   -2.1730   11.7200 N.am  575  ASP575     -0.1974
    141  CA        10.1470   -1.7940   13.0390 C.3   575  ASP575      0.1709
    142  C         10.4460   -2.9540   13.9840 C.2   575  ASP575      0.2293
    143  O         11.3220   -2.7900   14.8480 O.2   575  ASP575     -0.2864
    144  CB         8.9580   -1.0010   13.5410 C.3   575  ASP575      0.1436
    145  CG         9.3120   -0.2050   14.7070 C.2   575  ASP575      0.3671
    146  OD1       10.4070    0.3760   14.6260 O.co2 575  ASP575     -0.2456
    147  OD2        8.5650   -0.2010   15.7170 O.co2 575  ASP575     -0.2456
@<TRIPOS>BOND
     1    24    25    1
     2    24    26    1
     3    24    21    1
     4    20    21    1
     5    52    51    1
     6    21    22    1
     7    23    22    2
     8    51    49   ar
     9    51    50   ar
    10    22    27   am
    11    49    47   ar
    12    68    67    1
    13    50    48   ar
    14    69    67    1
    15    27    28    1
    16    67    66    2
    17    40    38    1
    18    30    29    2
    19    47    46   ar
    20    66    65    1
    21    48    46   ar
    22    29    28    1
    23    29    33   am
    24    28    31    1
    25    65    64    1
    26    46    45    1
    27    38    37    1
    28    57    58    1
    29    57    54    1
    30    34    33    1
    31    34    37    1
    32    34    35    1
    33    18    17    1
    34    56    55    2
    35    64    63    1
    36    17    19    1
    37    17    16    2
    38    31    32    1
    39    41    35   am
    40    41    42    1
    41    37    39    1
    42    15    14    1
    43    15    16    1
    44    14    13    1
    45    45    42    1
    46    63    60    1
    47    12    11    2
    48    35    36    2
    49    53    54    1
    50    53    43   am
    51     1     2    1
    52    55    54    1
    53    55    59   am
    54   138   137   ar
    55    42    43    1
    56    43    44    2
    57     9    10    1
    58     9     3   am
    59     2     3    1
    60     2     5    1
    61   137   139   ar
    62   137   136    1
    63    11    10    1
    64   135   136    1
    65   135   132    1
    66    59    60    1
    67    13    10    1
    68    60    61    1
    69   131   132    1
    70   132   133    1
    71     3     4    2
    72    62    61    2
    73    61    70   am
    74     5     6    1
    75    95    96    1
    76    95    92    1
    77    96    97    1
    78    99    97   am
    79     7     6   ar
    80    70    71    1
    81    97    98    2
    82     6     8   ar
    83    93    94    2
    84    93    92    1
    85   133   134    2
    86   133   140   am
    87    71    74    1
    88    71    72    1
    89    92    91    1
    90    77    78    1
    91    77    76    1
    92    74    75    1
    93   140   141    1
    94    91    81   am
    95    72    73    2
    96    72    79   am
    97    75    76    1
    98    79    80    1
    99   141   144    1
   100   141   142    1
   101    81    82    2
   102    81    80    1
   103   144   145    1
   104   111   113   ar
   105   111   109   ar
   106    80    83    1
   107   113   112   ar
   108   142   143    2
   109   108   109   ar
   110   108   106   ar
   111   109   107   ar
   112   146   145   ar
   113   145   147   ar
   114    83    84    1
   115   106   105   ar
   116   112   110   ar
   117   107   110   ar
   118   107   105   ar
   119   130   129    1
   120    85    84   ar
   121    85    87   ar
   122   105   104    1
   123    84    86   ar
   124   129   128    1
   125    87    89   ar
   126   104   101    1
   127    86    88   ar
   128   128   127    1
   129    89    88   ar
   130    89    90    1
   131   101   100    1
   132   101   102    1
   133   103   102    2
   134   127   124    1
   135   102   114   am
   136   124   123    1
   137   124   125    1
   138   114   115    1
   139   123   116   am
   140   126   125    2
   141   116   117    2
   142   116   115    1
   143   115   118    1
   144   118   119    1
   145   119   120    1
   146   120   121   ar
   147   120   122   ar
