@<TRIPOS>MOLECULE
tmp/3bcdA01.pdb
 98 94 0 0 0
SMALL
GASTEIGER

@<TRIPOS>ATOM
      1  N         45.7050   18.8280   12.4270 N.3   162  MET162     -0.1230
      2  CA        45.8820   20.2050   12.0550 C.3   162  MET162      0.1702
      3  C         44.8380   21.1320   12.6620 C.2   162  MET162      0.2592
      4  O         45.1770   22.2910   12.9090 O.2   162  MET162     -0.2718
      5  CB        45.7990   20.3780   10.5520 C.3   162  MET162      0.0401
      6  CG        44.3810   20.7920   10.1170 C.3   162  MET162      0.0596
      7  SD        44.2790   21.4820    8.5140 S.3   162  MET162     -0.1393
      8  CE        45.1180   23.0220    8.7850 C.3   162  MET162      0.0692
      9  N         43.5840   20.6390   12.8570 N.am  163  ALA163     -0.1980
     10  CA        42.4840   21.5060   13.4210 C.3   163  ALA163      0.1597
     11  C         42.5250   21.6100   14.9540 C.2   163  ALA163      0.2287
     12  O         41.6190   22.1700   15.6030 O.2   163  ALA163     -0.2864
     13  CB        41.0910   21.0380   12.9440 C.3   163  ALA163      0.0319
     14  N         49.4710   22.9990   17.6210 N.3   184  LYS184     -0.1245
     15  CA        48.2060   23.3260   16.9310 C.3   184  LYS184      0.1561
     16  C         47.1380   24.0420   17.7520 C.2   184  LYS184      0.2260
     17  O         45.9230   23.8970   17.4620 O.2   184  LYS184     -0.2867
     18  CB        47.5660   22.0430   16.3190 C.3   184  LYS184      0.0271
     19  CG        48.3640   21.4550   15.1790 C.3   184  LYS184      0.0035
     20  CD        48.5130   22.4810   14.0210 C.3   184  LYS184      0.0206
     21  CE        49.8070   22.3310   13.2910 C.3   184  LYS184      0.1093
     22  NZ        49.9180   23.4450   12.3380 N.3   184  LYS184     -0.1314
     23  N         48.9410   17.1260    7.0840 N.3   221  MET221     -0.1230
     24  CA        48.3530   18.4380    6.9000 C.3   221  MET221      0.1702
     25  C         48.8110   19.2940    8.1020 C.2   221  MET221      0.2593
     26  O         49.1380   18.7650    9.1700 O.2   221  MET221     -0.2718
     27  CB        46.8450   18.3320    6.9160 C.3   221  MET221      0.0401
     28  CG        46.2570   17.7590    5.6760 C.3   221  MET221      0.0596
     29  SD        44.5830   17.2420    6.0180 S.3   221  MET221     -0.1393
     30  CE        44.0220   16.7820    4.3890 C.3   221  MET221      0.0692
     31  N         48.8440   20.5960    7.9220 N.am  222  GLY222     -0.1942
     32  CA        49.1230   21.4830    9.0180 C.3   222  GLY222      0.2014
     33  C         50.5910   21.8460    9.1490 C.2   222  GLY222      0.2638
     34  O         51.0270   22.1740   10.2390 O.2   222  GLY222     -0.2714
     35  N         51.3420   21.7460    8.0400 N.am  223  ALA223     -0.1977
     36  CA        52.7720   22.1200    7.9560 C.3   223  ALA223      0.1597
     37  C         53.1030   23.3280    8.7570 C.2   223  ALA223      0.2287
     38  O         52.3410   24.2660    8.7500 O.2   223  ALA223     -0.2864
     39  CB        53.1740   22.4240    6.5090 C.3   223  ALA223      0.0319
     40  N         53.1140   23.3170    1.2380 N.3   246  TRP246     -0.1241
     41  CA        53.1240   23.1880    2.7070 C.3   246  TRP246      0.1605
     42  C         53.5790   21.7490    3.0780 C.2   246  TRP246      0.2264
     43  O         52.7680   20.8630    3.2330 O.2   246  TRP246     -0.2867
     44  CB        51.7430   23.5620    3.2850 C.3   246  TRP246      0.0550
     45  CG        51.5120   25.0270    3.2080 C.ar  246  TRP246      0.0003
     46  CD1       50.9540   25.7060    2.1840 C.ar  246  TRP246      0.0946
     47  CD2       51.9160   26.0280    4.1810 C.ar  246  TRP246      0.0152
     48  NE1       50.9660   27.0920    2.4480 N.ar  246  TRP246     -0.2442
     49  CE2       51.5250   27.3000    3.6730 C.ar  246  TRP246      0.0810
     50  CE3       52.5180   25.9630    5.4460 C.ar  246  TRP246      0.0012
     51  CZ2       51.7380   28.4870    4.3680 C.ar  246  TRP246      0.0191
     52  CZ3       52.7330   27.1750    6.1570 C.ar  246  TRP246      0.0001
     53  CH2       52.3570   28.4110    5.5980 C.ar  246  TRP246      0.0015
     54  N         48.1120   19.1030   -2.9820 N.3   272  ASP272     -0.1225
     55  CA        46.9330   19.5990   -3.7130 C.3   272  ASP272      0.1805
     56  C         46.6790   21.0740   -3.6110 C.2   272  ASP272      0.2597
     57  O         45.5810   21.4870   -3.8760 O.2   272  ASP272     -0.2718
     58  CB        45.6650   18.8770   -3.2370 C.3   272  ASP272      0.1424
     59  CG        45.4380   19.0010   -1.7170 C.2   272  ASP272      0.3668
     60  OD1       46.2320   19.6710   -0.9210 O.co2 272  ASP272     -0.2456
     61  OD2       44.4610   18.3500   -1.3150 O.co2 272  ASP272     -0.2456
     62  N         47.6820   21.8600   -3.2550 N.am  273  TRP273     -0.1976
     63  CA        47.5340   23.3170   -3.1010 C.3   273  TRP273      0.1640
     64  C         48.8860   23.9840   -3.3950 C.2   273  TRP273      0.2290
     65  O         49.9490   23.4620   -3.0050 O.2   273  TRP273     -0.2864
     66  CB        47.0740   23.7190   -1.6770 C.3   273  TRP273      0.0576
     67  CG        46.8210   25.2080   -1.4950 C.ar  273  TRP273      0.0006
     68  CD1       47.6400   26.1140   -0.8910 C.ar  273  TRP273      0.0946
     69  CD2       45.6790   25.9570   -1.9530 C.ar  273  TRP273      0.0152
     70  NE1       47.0920   27.3760   -0.9400 N.ar  273  TRP273     -0.2442
     71  CE2       45.8900   27.3080   -1.5840 C.ar  273  TRP273      0.0810
     72  CE3       44.5170   25.6190   -2.6490 C.ar  273  TRP273      0.0012
     73  CZ2       44.9860   28.2960   -1.8610 C.ar  273  TRP273      0.0191
     74  CZ3       43.6080   26.5890   -2.9240 C.ar  273  TRP273      0.0001
     75  CH2       43.8470   27.9220   -2.5360 C.ar  273  TRP273      0.0015
     76  N         50.4700   27.8050   -3.0740 N.3   275  ASP275     -0.1239
     77  CA        50.2160   28.9980   -2.3650 C.3   275  ASP275      0.1674
     78  C         50.7370   30.1840   -3.1260 C.2   275  ASP275      0.2266
     79  O         50.6150   31.2970   -2.6300 O.2   275  ASP275     -0.2867
     80  CB        50.8850   28.9680   -0.9690 C.3   275  ASP275      0.1410
     81  CG        49.9740   29.5700    0.1810 C.2   275  ASP275      0.3668
     82  OD1       50.4920   30.1670    1.1220 O.co2 275  ASP275     -0.2456
     83  OD2       48.7300   29.3610    0.1900 O.co2 275  ASP275     -0.2456
     84  N         47.4470   30.0280   -5.5430 N.3   278  LYS278     -0.1245
     85  CA        46.2650   29.8330   -4.6950 C.3   278  LYS278      0.1561
     86  C         45.2550   28.9940   -5.4110 C.2   278  LYS278      0.2260
     87  O         44.0910   29.3890   -5.5050 O.2   278  LYS278     -0.2867
     88  CB        45.6430   31.1730   -4.2770 C.3   278  LYS278      0.0271
     89  CG        46.5830   32.0580   -3.4490 C.3   278  LYS278      0.0035
     90  CD        47.0100   31.3430   -2.1680 C.3   278  LYS278      0.0206
     91  CE        47.7850   32.2470   -1.2120 C.3   278  LYS278      0.1093
     92  NZ        48.7390   33.1780   -1.8910 N.3   278  LYS278     -0.1314
     93  N         43.9600   24.7590   -6.2450 N.3   280  SER280     -0.1217
     94  CA        44.0330   23.3260   -6.0010 C.3   280  SER280      0.1889
     95  C         44.2900   22.5810   -7.3050 C.2   280  SER280      0.2288
     96  O         44.0470   23.1060   -8.4120 O.2   280  SER280     -0.2866
     97  CB        42.7400   22.7700   -5.3890 C.3   280  SER280      0.2089
     98  OG        41.8240   23.8150   -5.1500 O.3   280  SER280     -0.2183
@<TRIPOS>BOND
     1    96    95    2
     2    95    94    1
     3    93    94    1
     4    94    97    1
     5    84    85    1
     6    87    86    2
     7    86    85    1
     8    97    98    1
     9    85    88    1
    10    88    89    1
    11    57    56    2
    12    55    56    1
    13    55    58    1
    14    55    54    1
    15    56    62   am
    16    89    90    1
    17    64    63    1
    18    64    65    2
    19    62    63    1
    20    58    59    1
    21    78    79    2
    22    78    77    1
    23    63    66    1
    24    76    77    1
    25    74    72   ar
    26    74    75   ar
    27    72    69   ar
    28    75    73   ar
    29    77    80    1
    30    90    91    1
    31    69    71   ar
    32    69    67   ar
    33    92    91    1
    34    73    71   ar
    35    59    61   ar
    36    59    60   ar
    37    66    67    1
    38    71    70   ar
    39    67    68   ar
    40    80    81    1
    41    70    68   ar
    42    81    83   ar
    43    81    82   ar
    44    40    41    1
    45    46    48   ar
    46    46    45   ar
    47    48    49   ar
    48    41    42    1
    49    41    44    1
    50    42    43    2
    51    45    44    1
    52    45    47   ar
    53    49    47   ar
    54    49    51   ar
    55    47    50   ar
    56    51    53   ar
    57    30    29    1
    58    50    52   ar
    59    53    52   ar
    60    28    29    1
    61    28    27    1
    62    39    36    1
    63    24    27    1
    64    24    23    1
    65    24    25    1
    66    31    25   am
    67    31    32    1
    68    36    35    1
    69    36    37    1
    70    35    33   am
    71    25    26    2
    72     7     8    1
    73     7     6    1
    74    38    37    2
    75    32    33    1
    76    33    34    2
    77     6     5    1
    78     5     2    1
    79     2     1    1
    80     2     3    1
    81    22    21    1
    82     3     9   am
    83     3     4    2
    84     9    10    1
    85    13    10    1
    86    21    20    1
    87    10    11    1
    88    20    19    1
    89    11    12    2
    90    19    18    1
    91    18    15    1
    92    15    14    1
    93    15    16    1
    94    17    16    2
