@<TRIPOS>MOLECULE
tmp/3bceC01.pdb
 120 108 0 0 0
SMALL
GASTEIGER

@<TRIPOS>ATOM
      1  N        -26.5060   39.8910    7.4430 N.3    30  VAL30      -0.1245
      2  CA       -27.4340   40.8830    7.9840 C.3    30  VAL30       0.1561
      3  C        -26.7940   42.2680    7.9060 C.2    30  VAL30       0.2260
      4  O        -25.7090   42.4840    8.4480 O.2    30  VAL30      -0.2867
      5  CB       -27.8790   40.5690    9.4520 C.3    30  VAL30       0.0252
      6  CG1      -28.9000   41.5970    9.9380 C.3    30  VAL30       0.0019
      7  CG2      -28.4340   39.1520    9.5720 C.3    30  VAL30       0.0019
      8  N        -32.8400   46.3700   10.0260 N.3    47  ALA47      -0.1245
      9  CA       -31.9550   45.2450    9.6920 C.3    47  ALA47       0.1562
     10  C        -32.4410   44.6060    8.3980 C.2    47  ALA47       0.2260
     11  O        -33.6500   44.4370    8.1940 O.2    47  ALA47      -0.2867
     12  CB       -31.9280   44.2270   10.8030 C.3    47  ALA47       0.0290
     13  N        -31.7670   41.3180    5.9090 N.3    49  LYS49      -0.1245
     14  CA       -31.1440   40.0200    5.8310 C.3    49  LYS49       0.1561
     15  C        -31.2900   39.4350    4.4330 C.2    49  LYS49       0.2260
     16  O        -32.3970   39.3510    3.8970 O.2    49  LYS49      -0.2867
     17  CB       -31.7380   39.0770    6.8780 C.3    49  LYS49       0.0271
     18  CG       -30.9630   37.7740    7.0090 C.3    49  LYS49       0.0035
     19  CD       -31.5370   36.8700    8.0860 C.3    49  LYS49       0.0206
     20  CE       -30.6500   35.6420    8.3100 C.3    49  LYS49       0.1093
     21  NZ       -31.3460   34.6230    9.1450 N.3    49  LYS49      -0.1314
     22  N        -40.3480   31.8340    6.4410 N.3    66  GLU66      -0.1245
     23  CA       -39.9020   32.5130    7.6430 C.3    66  GLU66       0.1567
     24  C        -40.4760   33.9340    7.6980 C.2    66  GLU66       0.2260
     25  O        -40.9440   34.3750    8.7540 O.2    66  GLU66      -0.2867
     26  CB       -38.3770   32.5130    7.6610 C.3    66  GLU66       0.0388
     27  CG       -37.7040   33.0460    8.9120 C.3    66  GLU66       0.1160
     28  CD       -36.1760   33.2050    8.7340 C.2    66  GLU66       0.3649
     29  OE1      -35.5820   32.5300    7.8640 O.co2  66  GLU66      -0.2457
     30  OE2      -35.5630   34.0060    9.4720 O.co2  66  GLU66      -0.2457
     31  N        -42.9280   35.8160   10.6630 N.3    70  MET70      -0.1245
     32  CA       -42.5870   37.1370   11.2070 C.3    70  MET70       0.1570
     33  C        -43.6370   38.2100   10.8760 C.2    70  MET70       0.2261
     34  O        -43.8000   39.1700   11.6320 O.2    70  MET70      -0.2867
     35  CB       -41.2070   37.6100   10.7190 C.3    70  MET70       0.0387
     36  CG       -39.9920   36.7510   11.1050 C.3    70  MET70       0.0595
     37  SD       -38.4230   37.4100   10.4290 S.3    70  MET70      -0.1393
     38  CE       -37.8220   38.2020   11.8740 C.3    70  MET70       0.0692
     39  N        -39.3170   39.3200   17.2310 N.3    79  VAL79      -0.1231
     40  CA       -38.9390   40.1390   16.0810 C.3    79  VAL79       0.1692
     41  C        -40.0430   40.0740   15.0400 C.2    79  VAL79       0.2591
     42  O        -40.5270   38.9800   14.7160 O.2    79  VAL79      -0.2718
     43  CB       -37.6170   39.6670   15.4480 C.3    79  VAL79       0.0266
     44  CG1      -37.4280   40.3160   14.0980 C.3    79  VAL79       0.0020
     45  CG2      -36.4580   40.0170   16.3550 C.3    79  VAL79       0.0020
     46  N        -40.4020   41.2180   14.4790 N.am   80  ARG80      -0.1980
     47  CA       -41.4640   41.3890   13.5170 C.3    80  ARG80       0.1597
     48  C        -41.0180   41.7690   12.1030 C.2    80  ARG80       0.2287
     49  O        -40.1310   42.5170   11.9220 O.2    80  ARG80      -0.2864
     50  CB       -42.3420   42.4740   14.0240 C.3    80  ARG80       0.0334
     51  CG       -43.7220   42.1510   13.9350 C.3    80  ARG80       0.0492
     52  CD       -44.4720   43.1340   13.1710 C.3    80  ARG80       0.2205
     53  NE       -45.7710   42.5850   13.0070 N.pl3  80  ARG80      -0.0865
     54  CZ       -46.6910   43.0350   12.2050 C.cat  80  ARG80       0.5346
     55  NH1      -46.4570   44.0650   11.4740 N.pl3  80  ARG80       0.1354
     56  NH2      -47.8420   42.4400   12.1550 N.pl3  80  ARG80       0.1354
     57  N        -35.0910   40.3120    3.8700 N.3    92  LEU92      -0.1245
     58  CA       -36.0510   40.3940    4.9780 C.3    92  LEU92       0.1561
     59  C        -35.7440   41.6100    5.8020 C.2    92  LEU92       0.2260
     60  O        -34.6170   41.7670    6.2830 O.2    92  LEU92      -0.2867
     61  CB       -36.0300   39.1360    5.8580 C.3    92  LEU92       0.0270
     62  CG       -36.5090   37.8250    5.2190 C.3    92  LEU92       0.0019
     63  CD1      -36.9360   36.8190    6.2830 C.3    92  LEU92       0.0001
     64  CD2      -37.6360   38.0660    4.1970 C.3    92  LEU92       0.0001
     65  N        -36.5190   44.1500    8.9770 N.3    94  THR94      -0.1203
     66  CA       -37.0320   44.2250   10.3400 C.3    94  THR94       0.1994
     67  C        -36.4960   45.4810   11.0640 C.2    94  THR94       0.2617
     68  O        -35.5060   46.0810   10.6370 O.2    94  THR94      -0.2717
     69  CB       -36.5790   43.0050   11.1300 C.3    94  THR94       0.1784
     70  OG1      -35.1600   42.8820   11.0090 O.3    94  THR94      -0.2211
     71  CG2      -37.2120   41.7390   10.6120 C.3    94  THR94       0.0376
     72  N        -37.1400   45.8630   12.1660 N.am   95  GLN95      -0.1979
     73  CA       -36.6740   46.9910   12.9870 C.3    95  GLN95       0.1601
     74  C        -35.2630   46.7100   13.5190 C.2    95  GLN95       0.2287
     75  O        -35.0010   45.6250   14.0180 O.2    95  GLN95      -0.2864
     76  CB       -37.6560   47.2510   14.1480 C.3    95  GLN95       0.0394
     77  CG       -37.3230   48.4570   15.0470 C.3    95  GLN95       0.0908
     78  CD       -38.3820   48.6860   16.1350 C.2    95  GLN95       0.2608
     79  OE1      -39.3650   47.9270   16.2320 O.2    95  GLN95      -0.2717
     80  NE2      -38.1940   49.7380   16.9570 N.am   95  GLN95      -0.0878
     81  N        -32.2080   46.1770   15.7800 N.3    97  MET97      -0.1245
     82  CA       -31.9510   45.9060   17.1800 C.3    97  MET97       0.1570
     83  C        -30.5270   46.3820   17.4640 C.2    97  MET97       0.2261
     84  O        -29.5520   45.6850   17.1670 O.2    97  MET97      -0.2867
     85  CB       -32.1630   44.4200   17.5010 C.3    97  MET97       0.0387
     86  CG       -33.5990   43.9200   17.2930 C.3    97  MET97       0.0595
     87  SD       -34.7750   44.4010   18.5880 S.3    97  MET97      -0.1393
     88  CE       -35.8660   45.5550   17.7280 C.3    97  MET97       0.0692
     89  N        -32.2140   38.8240   20.3890 N.3   148  LEU148     -0.1245
     90  CA       -31.5960   40.1120   20.0840 C.3   148  LEU148      0.1561
     91  C        -32.0140   41.1710   21.0970 C.2   148  LEU148      0.2260
     92  O        -33.0850   41.0630   21.7160 O.2   148  LEU148     -0.2867
     93  CB       -31.9960   40.5630   18.6770 C.3   148  LEU148      0.0270
     94  CG       -31.5010   39.7350   17.4890 C.3   148  LEU148      0.0019
     95  CD1      -32.2690   40.1360   16.2640 C.3   148  LEU148      0.0001
     96  CD2      -30.0030   39.9420   17.2480 C.3   148  LEU148      0.0001
     97  N        -35.8490   40.4670   22.1680 N.3   156  LYS156     -0.1245
     98  CA       -36.7660   39.7430   21.2890 C.3   156  LYS156      0.1561
     99  C        -36.1440   38.4670   20.7320 C.2   156  LYS156      0.2260
    100  O        -34.9480   38.4260   20.4130 O.2   156  LYS156     -0.2867
    101  CB       -37.2210   40.6210   20.1260 C.3   156  LYS156      0.0271
    102  CG       -37.7280   41.9900   20.5160 C.3   156  LYS156      0.0035
    103  CD       -38.2310   42.7200   19.2940 C.3   156  LYS156      0.0206
    104  CE       -38.9930   43.9610   19.6710 C.3   156  LYS156      0.1093
    105  NZ       -39.7030   44.4140   18.4590 N.3   156  LYS156     -0.1314
    106  N        -35.7340   35.7570   17.7630 N.3   158  THR158     -0.1203
    107  CA       -35.7430   35.8190   16.3420 C.3   158  THR158      0.1994
    108  C        -35.3760   34.4910   15.7310 C.2   158  THR158      0.2617
    109  O        -35.3330   33.5150   16.3870 O.2   158  THR158     -0.2717
    110  CB       -34.8330   36.9420   15.8430 C.3   158  THR158      0.1784
    111  OG1      -35.1090   37.2310   14.5020 O.3   158  THR158     -0.2211
    112  CG2      -33.4430   36.6450   15.9880 C.3   158  THR158      0.0376
    113  N        -35.1550   34.4820   14.4410 N.am  159  ASP159     -0.1973
    114  CA       -34.5590   33.3680   13.7360 C.3   159  ASP159      0.1709
    115  C        -35.5480   32.2390   13.6470 C.2   159  ASP159      0.2293
    116  O        -35.3150   31.1850   14.1200 O.2   159  ASP159     -0.2864
    117  CB       -33.2770   32.9020   14.4110 C.3   159  ASP159      0.1436
    118  CG       -32.0590   33.0920   13.5730 C.2   159  ASP159      0.3671
    119  OD1      -31.6260   34.2090   13.4020 O.co2 159  ASP159     -0.2456
    120  OD2      -31.4840   32.1210   13.1120 O.co2 159  ASP159     -0.2456
@<TRIPOS>BOND
     1    57    58    1
     2    16    15    2
     3    64    62    1
     4    15    14    1
     5    58    59    1
     6    58    61    1
     7    62    61    1
     8    62    63    1
     9    59    60    2
    10    14    13    1
    11    14    17    1
    12    22    23    1
    13    17    18    1
    14    18    19    1
    15     1     2    1
    16    23    26    1
    17    23    24    1
    18    26    27    1
    19    24    25    2
    20    29    28   ar
    21     3     2    1
    22     3     4    2
    23     2     5    1
    24    19    20    1
    25    11    10    2
    26    20    21    1
    27    10     9    1
    28    28    27    1
    29    28    30   ar
    30    65    66    1
    31     5     7    1
    32     5     6    1
    33     9     8    1
    34     9    12    1
    35    66    67    1
    36    66    69    1
    37    37    36    1
    38    37    38    1
    39    71    69    1
    40    68    67    2
    41    31    32    1
    42    35    36    1
    43    35    32    1
    44    33    32    1
    45    33    34    2
    46    70    69    1
    47    67    72   am
    48    55    54    1
    49    49    48    2
    50    48    47    1
    51    56    54    1
    52    72    73    1
    53    54    53    2
    54    73    74    1
    55    73    76    1
    56    53    52    1
    57   120   118   ar
    58    52    51    1
    59   119   118   ar
    60    47    50    1
    61    47    46    1
    62    74    75    2
    63   118   117    1
    64   115   114    1
    65   115   116    2
    66   114   117    1
    67   114   113    1
    68    51    50    1
    69    44    43    1
    70    76    77    1
    71   113   108   am
    72    46    41   am
    73   111   110    1
    74    42    41    2
    75    41    40    1
    76    77    78    1
    77    43    40    1
    78    43    45    1
    79   108   107    1
    80   108   109    2
    81    81    82    1
    82   110   112    1
    83   110   107    1
    84    40    39    1
    85    78    79    2
    86    78    80   am
    87    95    94    1
    88   107   106    1
    89    84    83    2
    90    82    83    1
    91    82    85    1
    92    96    94    1
    93    86    85    1
    94    86    87    1
    95    94    93    1
    96    88    87    1
    97   105   104    1
    98    93    90    1
    99   103   104    1
   100   103   102    1
   101    90    89    1
   102    90    91    1
   103   101   102    1
   104   101    98    1
   105   100    99    2
   106    99    98    1
   107    91    92    2
   108    98    97    1
