@<TRIPOS>MOLECULE
tmp/3bcnA00.pdb
 146 146 0 0 0
SMALL
GASTEIGER

@<TRIPOS>ATOM
      1  N          9.2470  -11.0390   25.5670 N.3    19  GLN19      -0.1245
      2  CA         7.9660  -11.4430   26.0960 C.3    19  GLN19       0.1566
      3  C          7.6550  -12.8760   25.7370 C.2    19  GLN19       0.2260
      4  O          6.8330  -13.5000   26.3870 O.2    19  GLN19      -0.2867
      5  CB         6.8770  -10.5180   25.5720 C.3    19  GLN19       0.0367
      6  CG         6.9910  -10.1570   24.1010 C.3    19  GLN19       0.0905
      7  CD         5.7360   -9.4680   23.5950 C.2    19  GLN19       0.2608
      8  OE1        5.7970   -8.3950   22.9960 O.2    19  GLN19      -0.2717
      9  NE2        4.5860  -10.0890   23.8360 N.am   19  GLN19      -0.0878
     10  N          1.2350  -13.1850   24.3520 N.3    23  GLY23      -0.1210
     11  CA         0.6760  -11.8490   24.1600 C.3    23  GLY23       0.1956
     12  C          0.6700  -10.9650   25.4040 C.2    23  GLY23       0.2613
     13  O         -0.3890  -10.5230   25.8610 O.2    23  GLY23      -0.2717
     14  N          1.8590  -10.6700   25.9280 N.am   24  SER24      -0.1938
     15  CA         2.0190   -9.8820   27.1470 C.3    24  SER24       0.2055
     16  C          2.7130   -8.5430   26.9650 C.2    24  SER24       0.2643
     17  O          3.3320   -8.0260   27.8970 O.2    24  SER24      -0.2714
     18  CB         2.8230  -10.6900   28.1320 C.3    24  SER24       0.2130
     19  OG         4.0550  -11.0240   27.5230 O.3    24  SER24      -0.2179
     20  N          2.6240   -7.9990   25.7590 N.am   25  CYS25      -0.1953
     21  CA         3.2100   -6.7130   25.4260 C.3    25  CYS25       0.1843
     22  C          2.7570   -5.6950   26.4540 C.2    25  CYS25       0.2625
     23  O          3.5390   -4.8740   26.9210 O.2    25  CYS25      -0.2714
     24  CB         2.6820   -6.2770   24.0800 C.3    25  CYS25       0.0997
     25  SG         0.8650   -6.3580   24.0740 S.3    25  CYS25      -0.0797
     26  N          1.4690   -5.7660   26.7810 N.am   26  TRP26      -0.1974
     27  CA         0.8250   -4.8650   27.7260 C.3    26  TRP26       0.1640
     28  C          1.4650   -4.8580   29.0930 C.2    26  TRP26       0.2290
     29  O          1.3720   -3.8650   29.7950 O.2    26  TRP26      -0.2864
     30  CB        -0.6640   -5.2170   27.8660 C.3    26  TRP26       0.0576
     31  CG        -0.8990   -6.6100   28.3500 C.ar   26  TRP26       0.0006
     32  CD1       -0.9180   -7.7530   27.5930 C.ar   26  TRP26       0.0946
     33  CD2       -1.0590   -7.0270   29.7130 C.ar   26  TRP26       0.0152
     34  NE1       -1.0710   -8.8550   28.4010 N.ar   26  TRP26      -0.2442
     35  CE2       -1.1560   -8.4380   29.7070 C.ar   26  TRP26       0.0810
     36  CE3       -1.1230   -6.3450   30.9410 C.ar   26  TRP26       0.0012
     37  CZ2       -1.3170   -9.1830   30.8940 C.ar   26  TRP26       0.0191
     38  CZ3       -1.2820   -7.0840   32.1110 C.ar   26  TRP26       0.0001
     39  CH2       -1.3740   -8.4880   32.0800 C.ar   26  TRP26       0.0015
     40  N         -5.6890  -10.1770   30.5860 N.3    61  HIS61      -0.1241
     41  CA        -5.7440  -11.5250   30.0410 C.3    61  HIS61       0.1621
     42  C         -4.3800  -12.1350   29.7390 C.2    61  HIS61       0.2264
     43  O         -4.0630  -12.4580   28.5960 O.2    61  HIS61      -0.2867
     44  CB        -6.6050  -11.4930   28.7860 C.3    61  HIS61       0.0745
     45  CG        -7.6860  -10.4520   28.8350 C.ar   61  HIS61       0.0817
     46  ND1       -8.7790  -10.5560   29.6670 N.ar   61  HIS61      -0.2268
     47  CD2       -7.8090   -9.2620   28.2010 C.ar   61  HIS61       0.1154
     48  CE1       -9.5300   -9.4750   29.5420 C.ar   61  HIS61       0.1986
     49  NE2       -8.9650   -8.6720   28.6600 N.ar   61  HIS61      -0.2212
     50  N         -3.0290  -13.2710   26.2920 N.3    64  LYS64      -0.1231
     51  CA        -3.8300  -12.9070   25.1340 C.3    64  LYS64       0.1693
     52  C         -4.5810  -11.5910   25.2650 C.2    64  LYS64       0.2593
     53  O         -5.8060  -11.5690   25.3510 O.2    64  LYS64      -0.2718
     54  CB        -4.8010  -14.0330   24.8030 C.3    64  LYS64       0.0285
     55  CG        -5.8750  -14.3060   25.8410 C.3    64  LYS64       0.0035
     56  CD        -6.4890  -15.6920   25.6380 C.3    64  LYS64       0.0206
     57  CE        -6.2270  -16.2620   24.2410 C.3    64  LYS64       0.1093
     58  NZ        -6.7730  -17.6420   24.0710 N.3    64  LYS64      -0.1314
     59  N         -3.8450  -10.4880   25.2780 N.am   65  GLY65      -0.1942
     60  CA        -4.4970   -9.2000   25.3690 C.3    65  GLY65       0.2014
     61  C         -4.2080   -8.4500   26.6500 C.2    65  GLY65       0.2639
     62  O         -3.8600   -9.0510   27.6730 O.2    65  GLY65      -0.2714
     63  N         -4.3460   -7.1250   26.5790 N.am   66  GLY66      -0.1939
     64  CA        -4.1150   -6.2800   27.7300 C.3    66  GLY66       0.2014
     65  C         -4.1660   -4.8080   27.3760 C.2    66  GLY66       0.2639
     66  O         -3.9780   -4.4350   26.2200 O.2    66  GLY66      -0.2714
     67  N         -4.4470   -3.9730   28.3750 N.am   67  TYR67      -0.1959
     68  CA        -4.5020   -2.5300   28.1770 C.3    67  TYR67       0.1771
     69  C         -3.6500   -1.8420   29.2340 C.2    67  TYR67       0.2619
     70  O         -3.2710   -2.4430   30.2330 O.2    67  TYR67      -0.2715
     71  CB        -5.9490   -2.0070   28.2190 C.3    67  TYR67       0.0574
     72  CG        -6.3380   -1.2350   26.9560 C.ar   67  TYR67      -0.0198
     73  CD1       -5.6900   -1.4880   25.7330 C.ar   67  TYR67      -0.0009
     74  CD2       -7.3670   -0.2750   26.9660 C.ar   67  TYR67      -0.0009
     75  CE1       -6.0520   -0.8070   24.5490 C.ar   67  TYR67       0.0417
     76  CE2       -7.7390    0.4130   25.7800 C.ar   67  TYR67       0.0417
     77  CZ        -7.0680    0.1390   24.5750 C.ar   67  TYR67       0.1957
     78  OH        -7.3870    0.8140   23.4050 O.3    67  TYR67      -0.2866
     79  N         -3.3390   -0.5770   28.9960 N.am   68  PHE68      -0.1974
     80  CA        -2.5090    0.1720   29.9130 C.3    68  PHE68       0.1639
     81  C         -3.2830    0.7080   31.0930 C.2    68  PHE68       0.2290
     82  O         -2.7860    0.6680   32.2230 O.2    68  PHE68      -0.2864
     83  CB        -1.8090    1.3200   29.1740 C.3    68  PHE68       0.0560
     84  CG        -0.7200    0.8630   28.2500 C.ar   68  PHE68      -0.0200
     85  CD1        0.2930    0.0380   28.7240 C.ar   68  PHE68      -0.0042
     86  CD2       -0.7150    1.2360   26.9120 C.ar   68  PHE68      -0.0042
     87  CE1        1.3020   -0.4200   27.8760 C.ar   68  PHE68      -0.0003
     88  CE2        0.2930    0.7840   26.0440 C.ar   68  PHE68      -0.0003
     89  CZ         1.3040   -0.0470   26.5270 C.ar   68  PHE68      -0.0000
     90  N          1.1320    2.6530   22.3130 N.3   131  ALA131     -0.1245
     91  CA         0.5590    1.5540   21.5680 C.3   131  ALA131      0.1562
     92  C          0.8020    1.8780   20.0960 C.2   131  ALA131      0.2260
     93  O          0.8900    3.0600   19.7160 O.2   131  ALA131     -0.2867
     94  CB        -0.9320    1.4500   21.8540 C.3   131  ALA131      0.0290
     95  N         -3.7930    0.5530   16.8730 N.3   155  LEU155     -0.1231
     96  CA        -2.8110   -0.0090   17.7740 C.3   155  LEU155      0.1693
     97  C         -3.0940   -1.4810   18.0770 C.2   155  LEU155      0.2592
     98  O         -4.2470   -1.9050   18.0570 O.2   155  LEU155     -0.2718
     99  CB        -2.8430    0.8140   19.0600 C.3   155  LEU155      0.0284
    100  CG        -3.3350    2.2540   18.8110 C.3   155  LEU155      0.0019
    101  CD1       -3.4980    3.0040   20.1250 C.3   155  LEU155      0.0001
    102  CD2       -2.3650    2.9740   17.8730 C.3   155  LEU155      0.0001
    103  N         -2.0390   -2.2510   18.3460 N.am  156  ASN156     -0.1960
    104  CA        -2.1610   -3.6710   18.6820 C.3   156  ASN156      0.1819
    105  C         -1.0160   -4.1130   19.5930 C.2   156  ASN156      0.2621
    106  O         -1.0790   -5.1790   20.2170 O.2   156  ASN156     -0.2715
    107  CB        -2.1360   -4.5440   17.4290 C.3   156  ASN156      0.1195
    108  CG        -0.7640   -5.1850   17.1810 C.2   156  ASN156      0.2630
    109  OD1        0.2030   -4.4950   16.8260 O.2   156  ASN156     -0.2716
    110  ND2       -0.6760   -6.5110   17.3720 N.am  156  ASN156     -0.0877
    111  N          0.0270   -3.2890   19.6680 N.am  157  HIS157     -0.1959
    112  CA         1.1940   -3.6040   20.4800 C.3   157  HIS157      0.1787
    113  C          1.5550   -2.4710   21.4430 C.2   157  HIS157      0.2620
    114  O          1.2700   -1.3010   21.1810 O.2   157  HIS157     -0.2715
    115  CB         2.3810   -3.8720   19.5650 C.3   157  HIS157      0.0785
    116  CG         3.5540   -4.4850   20.2570 C.ar  157  HIS157      0.0821
    117  ND1        3.6040   -5.8190   20.5880 N.ar  157  HIS157     -0.2267
    118  CD2        4.7240   -3.9480   20.6770 C.ar  157  HIS157      0.1154
    119  CE1        4.7550   -6.0810   21.1790 C.ar  157  HIS157      0.1986
    120  NE2        5.4520   -4.9610   21.2460 N.ar  157  HIS157     -0.2212
    121  N          2.2020   -2.8160   22.5510 N.am  158  GLY158     -0.1954
    122  CA         2.5910   -1.8040   23.5130 C.3   158  GLY158      0.1869
    123  C          4.0890   -1.7910   23.7450 C.2   158  GLY158      0.2309
    124  O          4.7100   -2.8400   23.8690 O.2   158  GLY158     -0.2863
    125  N         11.0920   -8.0140   22.1610 N.3   175  TRP175     -0.1241
    126  CA        11.2810   -9.2120   21.3650 C.3   175  TRP175      0.1605
    127  C         12.7400   -9.6810   21.2770 C.2   175  TRP175      0.2264
    128  O         13.1900  -10.2190   20.2550 O.2   175  TRP175     -0.2867
    129  CB        10.7290   -8.9890   19.9610 C.3   175  TRP175      0.0550
    130  CG         9.2530   -8.6800   19.9510 C.ar  175  TRP175      0.0003
    131  CD1        8.3410   -9.0050   20.9140 C.ar  175  TRP175      0.0946
    132  CD2        8.5170   -8.0540   18.9010 C.ar  175  TRP175      0.0152
    133  NE1        7.0870   -8.6180   20.5280 N.ar  175  TRP175     -0.2442
    134  CE2        7.1680   -8.0260   19.2960 C.ar  175  TRP175      0.0810
    135  CE3        8.8730   -7.4980   17.6680 C.ar  175  TRP175      0.0012
    136  CZ2        6.1640   -7.4810   18.4960 C.ar  175  TRP175      0.0191
    137  CZ3        7.8750   -6.9500   16.8700 C.ar  175  TRP175      0.0001
    138  CH2        6.5340   -6.9410   17.2930 C.ar  175  TRP175      0.0015
    139  N         -2.3210    6.6470   22.0260 N.3   201  LEU201     -0.1245
    140  CA        -2.5860    6.3140   23.4210 C.3   201  LEU201      0.1561
    141  C         -1.3020    6.3370   24.2470 C.2   201  LEU201      0.2260
    142  O         -0.7310    5.2910   24.5850 O.2   201  LEU201     -0.2867
    143  CB        -3.2700    4.9470   23.5480 C.3   201  LEU201      0.0270
    144  CG        -4.1230    4.7620   24.8140 C.3   201  LEU201      0.0019
    145  CD1       -5.5860    5.0420   24.5160 C.3   201  LEU201      0.0001
    146  CD2       -3.9710    3.3490   25.3290 C.3   201  LEU201      0.0001
@<TRIPOS>BOND
     1   109   108    2
     2   137   138   ar
     3   137   135   ar
     4    95    96    1
     5   108   110   am
     6   108   107    1
     7   138   136   ar
     8   107   104    1
     9   135   132   ar
    10    96    97    1
    11    96    99    1
    12   102   100    1
    13    98    97    2
    14    97   103   am
    15   103   104    1
    16   136   134   ar
    17   104   105    1
    18   100    99    1
    19   100   101    1
    20   132   134   ar
    21   132   130   ar
    22   134   133   ar
    23   115   116    1
    24   115   112    1
    25   105   111   am
    26   105   106    2
    27   111   112    1
    28    93    92    2
    29   130   129    1
    30   130   131   ar
    31   129   126    1
    32    92    91    1
    33   128   127    2
    34   116   117   ar
    35   116   118   ar
    36   112   113    1
    37   133   131   ar
    38   117   119   ar
    39   118   120   ar
    40   119   120   ar
    41   114   113    2
    42   127   126    1
    43   126   125    1
    44   113   121   am
    45    91    94    1
    46    91    90    1
    47   139   140    1
    48   121   122    1
    49     8     7    2
    50    78    77    1
    51   140   143    1
    52   140   141    1
    53   122   123    1
    54   143   144    1
    55     7     9   am
    56     7     6    1
    57   123   124    2
    58    58    57    1
    59    25    24    1
    60    24    21    1
    61     6     5    1
    62    11    10    1
    63    11    12    1
    64    57    56    1
    65   141   142    2
    66   145   144    1
    67    75    77   ar
    68    75    73   ar
    69    77    76   ar
    70    54    51    1
    71    54    55    1
    72   144   146    1
    73    51    52    1
    74    51    50    1
    75    52    59   am
    76    52    53    2
    77    59    60    1
    78    60    61    1
    79    12    13    2
    80    12    14   am
    81    21    20    1
    82    21    22    1
    83     1     2    1
    84     5     2    1
    85    56    55    1
    86    73    72   ar
    87     3     2    1
    88     3     4    2
    89    20    16   am
    90    76    74   ar
    91    14    15    1
    92    88    89   ar
    93    88    86   ar
    94    66    65    2
    95    22    26   am
    96    22    23    2
    97    89    87   ar
    98    63    61   am
    99    63    64    1
   100    61    62    2
   101    26    27    1
   102    86    84   ar
   103    72    74   ar
   104    72    71    1
   105    16    15    1
   106    16    17    2
   107    15    18    1
   108    65    64    1
   109    65    67   am
   110    19    18    1
   111    32    31   ar
   112    32    34   ar
   113    27    30    1
   114    27    28    1
   115    30    31    1
   116    87    85   ar
   117    68    71    1
   118    68    67    1
   119    68    69    1
   120    47    49   ar
   121    47    45   ar
   122    84    85   ar
   123    84    83    1
   124    31    33   ar
   125    34    35   ar
   126    43    42    2
   127    49    48   ar
   128    44    45    1
   129    44    41    1
   130    45    46   ar
   131    79    69   am
   132    79    80    1
   133    28    29    2
   134    83    80    1
   135    69    70    2
   136    48    46   ar
   137    35    33   ar
   138    35    37   ar
   139    33    36   ar
   140    42    41    1
   141    80    81    1
   142    41    40    1
   143    37    39   ar
   144    36    38   ar
   145    81    82    2
   146    39    38   ar
