@<TRIPOS>MOLECULE
tmp/3bcqB00.pdb
 239 225 0 0 0
SMALL
GASTEIGER

@<TRIPOS>ATOM
      1  N          0.7620    6.5420   41.9780 N.3    28  LEU28      -0.1245
      2  CA        -0.6520    6.9070   42.0080 C.3    28  LEU28       0.1561
      3  C         -0.8230    8.3870   41.6360 C.2    28  LEU28       0.2260
      4  O         -1.7440    8.7570   40.8790 O.2    28  LEU28      -0.2867
      5  CB        -1.2600    6.5730   43.3660 C.3    28  LEU28       0.0270
      6  CG        -2.8050    6.7550   43.4950 C.3    28  LEU28       0.0019
      7  CD1       -3.5070    5.7170   42.6200 C.3    28  LEU28       0.0001
      8  CD2       -3.1790    6.5240   44.8410 C.3    28  LEU28       0.0001
      9  N         -0.5540    8.6790   37.7400 N.3    31  LEU31      -0.1245
     10  CA        -1.8130    8.2820   37.1410 C.3    31  LEU31       0.1561
     11  C         -2.8560    9.3650   37.2910 C.2    31  LEU31       0.2260
     12  O         -3.5510    9.6690   36.3920 O.2    31  LEU31      -0.2867
     13  CB        -2.3260    7.0290   37.8200 C.3    31  LEU31       0.0270
     14  CG        -3.6030    6.4750   37.2310 C.3    31  LEU31       0.0019
     15  CD1       -3.2090    5.6460   36.0010 C.3    31  LEU31       0.0001
     16  CD2       -4.3440    5.6350   38.2860 C.3    31  LEU31       0.0001
     17  N         -9.3350    9.3150   35.8460 N.3    38  THR38      -0.1218
     18  CA        -9.0750    8.2440   36.8010 C.3    38  THR38       0.1862
     19  C         -9.3610    8.8340   38.2320 C.2    38  THR38       0.2287
     20  O         -9.6250    8.1220   39.1280 O.2    38  THR38      -0.2866
     21  CB        -7.5910    7.9710   36.5300 C.3    38  THR38       0.1770
     22  OG1       -7.3330    6.6240   36.1070 O.3    38  THR38      -0.2211
     23  CG2       -6.7470    8.5060   37.5040 C.3    38  THR38       0.0375
     24  N        -12.6790    7.8710   40.0850 N.3    41  HIS41      -0.1226
     25  CA       -12.7300    6.7070   40.9760 C.3    41  HIS41       0.1752
     26  C        -12.3070    7.0020   42.3870 C.2    41  HIS41       0.2596
     27  O        -12.6220    6.2840   43.2700 O.2    41  HIS41      -0.2718
     28  CB       -11.8600    5.5870   40.4170 C.3    41  HIS41       0.0759
     29  CG       -12.3540    5.0780   39.1090 C.ar   41  HIS41       0.0818
     30  ND1      -13.5140    4.3480   38.9990 N.ar   41  HIS41      -0.2268
     31  CD2      -11.8800    5.2330   37.8480 C.ar   41  HIS41       0.1154
     32  CE1      -13.7500    4.0830   37.7260 C.ar   41  HIS41       0.1986
     33  NE2      -12.7580    4.5820   37.0100 N.ar   41  HIS41      -0.2212
     34  N        -11.5530    8.0580   42.5780 N.am   42  PHE42      -0.1976
     35  CA       -11.0310    8.4140   43.8760 C.3    42  PHE42       0.1639
     36  C        -11.6380    9.7370   44.3190 C.2    42  PHE42       0.2290
     37  O        -10.9360   10.5060   44.9170 O.2    42  PHE42      -0.2864
     38  CB        -9.4920    8.6350   43.7600 C.3    42  PHE42       0.0560
     39  CG        -8.7710    7.4460   43.2820 C.ar   42  PHE42      -0.0200
     40  CD1       -8.3970    6.4660   44.1620 C.ar   42  PHE42      -0.0042
     41  CD2       -8.5280    7.2670   41.9360 C.ar   42  PHE42      -0.0042
     42  CE1       -7.7660    5.3140   43.7180 C.ar   42  PHE42      -0.0003
     43  CE2       -7.8800    6.1310   41.4710 C.ar   42  PHE42      -0.0003
     44  CZ        -7.4940    5.1500   42.3550 C.ar   42  PHE42      -0.0000
     45  N        -13.6860   10.2460   46.6980 N.3    44  ALA44      -0.1231
     46  CA       -13.6480   10.2140   48.1950 C.3    44  ALA44       0.1694
     47  C        -12.3240   10.8060   48.8140 C.2    44  ALA44       0.2592
     48  O        -12.2610   11.0710   50.0230 O.2    44  ALA44      -0.2718
     49  CB       -13.8890    8.7650   48.7160 C.3    44  ALA44       0.0304
     50  N        -11.2990   11.0350   47.9890 N.am   45  PHE45      -0.1976
     51  CA        -9.9210   11.3810   48.4290 C.3    45  PHE45       0.1639
     52  C         -9.5550   12.8460   48.7180 C.2    45  PHE45       0.2290
     53  O         -8.5040   13.0940   49.2810 O.2    45  PHE45      -0.2864
     54  CB        -8.8760   10.8040   47.4230 C.3    45  PHE45       0.0560
     55  CG        -8.6800    9.3020   47.5270 C.ar   45  PHE45      -0.0200
     56  CD1       -9.7430    8.4590   47.8320 C.ar   45  PHE45      -0.0042
     57  CD2       -7.4250    8.7370   47.3230 C.ar   45  PHE45      -0.0042
     58  CE1       -9.5680    7.0980   47.9340 C.ar   45  PHE45      -0.0003
     59  CE2       -7.2340    7.3510   47.4160 C.ar   45  PHE45      -0.0003
     60  CZ        -8.3030    6.5340   47.7170 C.ar   45  PHE45      -0.0000
     61  N         -4.2690   10.5970   51.4600 N.3    59  LYS59      -0.1245
     62  CA        -5.0440    9.4360   51.0830 C.3    59  LYS59       0.1561
     63  C         -4.5040    8.8610   49.7770 C.2    59  LYS59       0.2260
     64  O         -4.4200    7.6270   49.6390 O.2    59  LYS59      -0.2867
     65  CB        -6.5420    9.7600   51.0410 C.3    59  LYS59       0.0271
     66  CG        -7.4190    8.5870   51.6040 C.3    59  LYS59       0.0035
     67  CD        -8.8860    8.9740   51.6420 C.3    59  LYS59       0.0206
     68  CE        -9.8020    7.7210   51.3920 C.3    59  LYS59       0.1093
     69  NZ        -9.7390    6.6210   52.3810 N.3    59  LYS59      -0.1314
     70  N         -2.8120    5.3550   49.7200 N.3    63  HIS63      -0.1241
     71  CA        -3.3600    4.4030   48.8230 C.3    63  HIS63       0.1621
     72  C         -2.3200    3.8710   47.7960 C.2    63  HIS63       0.2264
     73  O         -2.4050    2.7350   47.3700 O.2    63  HIS63      -0.2867
     74  CB        -4.5940    4.9550   48.1370 C.3    63  HIS63       0.0745
     75  CG        -5.2270    3.9460   47.2510 C.ar   63  HIS63       0.0817
     76  ND1       -5.9960    2.9120   47.7510 N.ar   63  HIS63      -0.2268
     77  CD2       -5.1300    3.7440   45.9190 C.ar   63  HIS63       0.1154
     78  CE1       -6.3670    2.1260   46.7520 C.ar   63  HIS63       0.1986
     79  NE2       -5.8530    2.6090   45.6340 N.ar   63  HIS63      -0.2212
     80  N         -0.8120    1.1220   49.4570 N.3    66  VAL66      -0.1231
     81  CA        -1.7460   -0.0060   49.4480 C.3    66  VAL66       0.1692
     82  C         -1.7020   -0.7170   48.0960 C.2    66  VAL66       0.2591
     83  O         -1.7330   -1.9570   48.0160 O.2    66  VAL66      -0.2718
     84  CB        -3.2150    0.4230   49.8250 C.3    66  VAL66       0.0266
     85  CG1       -4.1700   -0.7020   49.6080 C.3    66  VAL66       0.0020
     86  CG2       -3.3130    0.8850   51.2800 C.3    66  VAL66       0.0020
     87  N         -1.6510    0.0510   47.0210 N.am   67  VAL67      -0.1980
     88  CA        -1.3410   -0.5610   45.6820 C.3    67  VAL67       0.1595
     89  C         -0.0510   -1.3930   45.6670 C.2    67  VAL67       0.2287
     90  O         -0.0620   -2.4910   45.1850 O.2    67  VAL67      -0.2864
     91  CB        -1.3000    0.4600   44.5380 C.3    67  VAL67       0.0276
     92  CG1       -0.8050   -0.1940   43.2160 C.3    67  VAL67       0.0022
     93  CG2       -2.6570    1.1830   44.4040 C.3    67  VAL67       0.0022
     94  N         -0.8170   -4.6440   47.1090 N.3    70  GLY70      -0.1210
     95  CA        -1.3960   -5.5580   46.1270 C.3    70  GLY70       0.1956
     96  C         -0.3290   -6.2720   45.2740 C.2    70  GLY70       0.2611
     97  O         -0.4260   -7.5060   44.9960 O.2    70  GLY70      -0.2717
     98  N          0.7150   -5.5230   44.8850 N.am   71  LEU71      -0.1979
     99  CA         1.7980   -6.0820   44.1210 C.3    71  LEU71       0.1596
    100  C          2.6390   -7.0790   44.9220 C.2    71  LEU71       0.2287
    101  O          2.9350   -8.1560   44.4250 O.2    71  LEU71      -0.2864
    102  CB         2.7070   -4.9980   43.5450 C.3    71  LEU71       0.0297
    103  CG         2.0880   -4.0360   42.5600 C.3    71  LEU71       0.0022
    104  CD1        3.2000   -3.4980   41.7300 C.3    71  LEU71       0.0001
    105  CD2        1.0900   -4.7730   41.6780 C.3    71  LEU71       0.0001
    106  N          1.5790   -8.8680   47.3230 N.3    73  ARG73      -0.1245
    107  CA         0.7230  -10.0500   47.4010 C.3    73  ARG73       0.1563
    108  C          0.8540  -10.9420   46.1540 C.2    73  ARG73       0.2260
    109  O          0.8320  -12.2000   46.2360 O.2    73  ARG73      -0.2867
    110  CB        -0.7320   -9.6060   47.6990 C.3    73  ARG73       0.0307
    111  CG        -1.8700  -10.6630   47.6280 C.3    73  ARG73       0.0489
    112  CD        -3.1990  -10.1460   48.3130 C.3    73  ARG73       0.2205
    113  NE        -4.4270  -10.8190   47.8420 N.pl3  73  ARG73      -0.0865
    114  CZ        -5.6810  -10.3450   47.9970 C.cat  73  ARG73       0.5346
    115  NH1       -5.8880   -9.2200   48.6580 N.pl3  73  ARG73       0.1354
    116  NH2       -6.7530  -10.9770   47.4820 N.pl3  73  ARG73       0.1354
    117  N         -5.8840  -12.7670   43.7250 N.3    85  TYR85      -0.1241
    118  CA        -6.4850  -11.4920   43.3620 C.3    85  TYR85       0.1605
    119  C         -7.9900  -11.6050   43.2550 C.2    85  TYR85       0.2264
    120  O         -8.6980  -10.6100   42.9960 O.2    85  TYR85      -0.2867
    121  CB        -5.8720  -11.0250   42.0410 C.3    85  TYR85       0.0534
    122  CG        -4.7150  -10.1280   42.2570 C.ar   85  TYR85      -0.0201
    123  CD1       -3.7320  -10.4640   43.1700 C.ar   85  TYR85      -0.0009
    124  CD2       -4.5850   -8.9440   41.5540 C.ar   85  TYR85      -0.0009
    125  CE1       -2.6910   -9.6650   43.4260 C.ar   85  TYR85       0.0417
    126  CE2       -3.5260   -8.1030   41.7960 C.ar   85  TYR85       0.0417
    127  CZ        -2.5790   -8.4750   42.7360 C.ar   85  TYR85       0.1957
    128  OH        -1.4710   -7.6890   42.9820 O.3    85  TYR85      -0.2866
    129  N         -9.9630   -8.9430   44.8500 N.3    88  LEU88      -0.1245
    130  CA        -9.5430   -7.7240   44.1690 C.3    88  LEU88       0.1561
    131  C        -10.2010   -7.5260   42.7960 C.2    88  LEU88       0.2260
    132  O        -10.7660   -6.4850   42.5390 O.2    88  LEU88      -0.2867
    133  CB        -8.0350   -7.7120   44.0550 C.3    88  LEU88       0.0270
    134  CG        -7.3250   -7.3080   45.3410 C.3    88  LEU88       0.0019
    135  CD1       -5.8320   -7.0220   45.0300 C.3    88  LEU88       0.0001
    136  CD2       -8.0770   -6.1050   45.9390 C.3    88  LEU88       0.0001
    137  N        -13.8530   -6.6720   43.4000 N.3    91  MET91      -0.1230
    138  CA       -13.9570   -5.2830   43.8460 C.3    91  MET91       0.1702
    139  C        -13.6820   -4.2480   42.7190 C.2    91  MET91       0.2592
    140  O        -14.3890   -3.2480   42.6540 O.2    91  MET91      -0.2718
    141  CB       -13.0710   -5.0240   45.0790 C.3    91  MET91       0.0401
    142  CG       -13.2690   -3.6110   45.7550 C.3    91  MET91       0.0596
    143  SD       -11.7130   -3.0810   46.5090 S.3    91  MET91      -0.1393
    144  CE       -11.9620   -1.2960   46.6580 C.3    91  MET91       0.0692
    145  N        -12.6950   -4.5190   41.8520 N.am   92  HIS92      -0.1976
    146  CA       -12.4150   -3.6570   40.6970 C.3    92  HIS92       0.1656
    147  C        -13.3480   -3.8690   39.4640 C.2    92  HIS92       0.2291
    148  O        -13.6710   -2.8910   38.7910 O.2    92  HIS92      -0.2864
    149  CB       -10.9360   -3.7210   40.2810 C.3    92  HIS92       0.0771
    150  CG       -10.0030   -3.0670   41.2500 C.ar   92  HIS92       0.0820
    151  ND1       -9.3320   -3.7730   42.2260 N.ar   92  HIS92      -0.2267
    152  CD2       -9.5920   -1.7890   41.3680 C.ar   92  HIS92       0.1154
    153  CE1       -8.5810   -2.9490   42.9340 C.ar   92  HIS92       0.1986
    154  NE2       -8.7200   -1.7370   42.4340 N.ar   92  HIS92      -0.2212
    155  N        -16.3510   -1.4900   41.6690 N.3    96  LEU96      -0.1245
    156  CA       -15.9160   -0.1660   41.1980 C.3    96  LEU96       0.1561
    157  C        -16.1920    0.0910   39.6720 C.2    96  LEU96       0.2260
    158  O        -16.2900    1.2720   39.2430 O.2    96  LEU96      -0.2867
    159  CB       -14.4580    0.1420   41.5800 C.3    96  LEU96       0.0270
    160  CG       -14.0340    0.0940   43.0780 C.3    96  LEU96       0.0019
    161  CD1      -12.5370   -0.0840   43.1910 C.3    96  LEU96       0.0001
    162  CD2      -14.5220    1.2330   44.0160 C.3    96  LEU96       0.0001
    163  N        -14.0900   -0.4040   37.2030 N.3    98  VAL98      -0.1245
    164  CA       -12.9310    0.2750   36.7130 C.3    98  VAL98       0.1561
    165  C        -12.7280   -0.3580   35.3100 C.2    98  VAL98       0.2260
    166  O        -12.5500   -1.5780   35.1810 O.2    98  VAL98      -0.2867
    167  CB       -11.6750    0.0930   37.6600 C.3    98  VAL98       0.0252
    168  CG1      -10.4300    0.6400   36.9530 C.3    98  VAL98       0.0019
    169  CG2      -11.8880    0.7420   39.1330 C.3    98  VAL98       0.0019
    170  N         -7.5010    0.9500   32.5240 N.3   102  ASN102     -0.1225
    171  CA        -6.9080    1.6710   33.5930 C.3   102  ASN102      0.1785
    172  C         -5.8860    0.9090   34.3620 C.2   102  ASN102      0.2597
    173  O         -4.9440    1.5050   34.8390 O.2   102  ASN102     -0.2718
    174  CB        -7.9270    2.3390   34.5210 C.3   102  ASN102      0.1169
    175  CG        -8.8020    3.3280   33.7660 C.2   102  ASN102      0.2627
    176  OD1       -8.3230    4.3450   33.1590 O.2   102  ASN102     -0.2716
    177  ND2      -10.1090    3.0250   33.7610 N.am  102  ASN102     -0.0877
    178  N         -6.0510   -0.3890   34.5080 N.am  103  PHE103     -0.1976
    179  CA        -5.0630   -1.1400   35.2820 C.3   103  PHE103      0.1639
    180  C         -3.7900   -1.0810   34.4430 C.2   103  PHE103      0.2290
    181  O         -2.6960   -1.0450   35.0210 O.2   103  PHE103     -0.2864
    182  CB        -5.4340   -2.6390   35.4830 C.3   103  PHE103      0.0560
    183  CG        -6.8240   -2.8820   36.0330 C.ar  103  PHE103     -0.0200
    184  CD1       -7.3050   -2.1520   37.0770 C.ar  103  PHE103     -0.0042
    185  CD2       -7.6320   -3.8570   35.4650 C.ar  103  PHE103     -0.0042
    186  CE1       -8.6040   -2.3620   37.5750 C.ar  103  PHE103     -0.0003
    187  CE2       -8.9340   -4.1030   35.9420 C.ar  103  PHE103     -0.0003
    188  CZ        -9.4330   -3.3370   37.0080 C.ar  103  PHE103     -0.0000
    189  N         -1.9850    2.4030   35.1380 N.3   106  LEU106     -0.1231
    190  CA        -1.2920    2.3650   36.4470 C.3   106  LEU106      0.1693
    191  C         -0.0490    1.5610   36.4540 C.2   106  LEU106      0.2591
    192  O          0.8950    1.9790   36.9840 O.2   106  LEU106     -0.2718
    193  CB        -2.1680    1.7490   37.5220 C.3   106  LEU106      0.0284
    194  CG        -2.0390    2.3010   38.9600 C.3   106  LEU106      0.0019
    195  CD1       -2.3790    1.2670   39.9300 C.3   106  LEU106      0.0001
    196  CD2       -0.8130    3.1220   39.4060 C.3   106  LEU106      0.0001
    197  N         -0.0980    0.3360   35.9660 N.am  107  ALA107     -0.1980
    198  CA         1.0870   -0.4960   35.7120 C.3   107  ALA107      0.1597
    199  C          2.1340    0.2670   34.8950 C.2   107  ALA107      0.2287
    200  O          3.3220    0.2420   35.2690 O.2   107  ALA107     -0.2864
    201  CB         0.6160   -1.6700   34.9420 C.3   107  ALA107      0.0319
    202  N          3.5770    2.9380   37.1710 N.3   110  ILE110     -0.1245
    203  CA         4.5270    2.2150   38.0240 C.3   110  ILE110      0.1561
    204  C          5.8470    1.9580   37.3050 C.2   110  ILE110      0.2260
    205  O          6.9000    2.3070   37.7740 O.2   110  ILE110     -0.2867
    206  CB         3.9930    0.8630   38.5950 C.3   110  ILE110      0.0252
    207  CG1        2.6250    1.0510   39.4080 C.3   110  ILE110      0.0019
    208  CG2        5.0630    0.2550   39.4040 C.3   110  ILE110      0.0019
    209  CD1        1.9610   -0.2550   40.0590 C.3   110  ILE110      0.0001
    210  N          3.5830   -7.5420   35.6540 N.3   135  LEU135     -0.1245
    211  CA         2.4420   -6.6420   35.6760 C.3   135  LEU135      0.1561
    212  C          1.2880   -7.0640   34.7560 C.2   135  LEU135      0.2260
    213  O          0.1300   -6.6600   34.9590 O.2   135  LEU135     -0.2867
    214  CB         2.8630   -5.2240   35.3610 C.3   135  LEU135      0.0270
    215  CG         3.7890   -4.5160   36.2960 C.3   135  LEU135      0.0019
    216  CD1        4.3860   -3.3760   35.4590 C.3   135  LEU135      0.0001
    217  CD2        3.0340   -3.9420   37.4910 C.3   135  LEU135      0.0001
    218  N         -0.6950   -9.4280   36.6170 N.3   138  VAL138     -0.1231
    219  CA        -1.4700   -8.7580   37.6600 C.3   138  VAL138      0.1692
    220  C         -2.7010   -8.1180   37.0680 C.2   138  VAL138      0.2591
    221  O         -3.8150   -8.2510   37.5640 O.2   138  VAL138     -0.2718
    222  CB        -0.5950   -7.6850   38.3620 C.3   138  VAL138      0.0266
    223  CG1       -1.4550   -6.6590   39.1330 C.3   138  VAL138      0.0020
    224  CG2        0.3630   -8.3790   39.2680 C.3   138  VAL138      0.0020
    225  N         -2.4830   -7.4180   35.9950 N.am  139  VAL139     -0.1980
    226  CA        -3.5000   -6.6800   35.3350 C.3   139  VAL139      0.1595
    227  C         -4.5200   -7.6760   34.8630 C.2   139  VAL139      0.2287
    228  O         -5.7130   -7.4110   34.9950 O.2   139  VAL139     -0.2864
    229  CB        -2.8130   -5.9030   34.1540 C.3   139  VAL139      0.0276
    230  CG1       -3.6680   -5.8180   32.8760 C.3   139  VAL139      0.0022
    231  CG2       -2.2890   -4.5700   34.6430 C.3   139  VAL139      0.0022
    232  N         -6.6540   -8.7700   37.6380 N.3   142  LEU142     -0.1245
    233  CA        -7.5350   -7.7390   38.1780 C.3   142  LEU142      0.1561
    234  C         -8.9640   -7.3820   37.6320 C.2   142  LEU142      0.2260
    235  O         -9.8740   -7.5130   38.4030 O.2   142  LEU142     -0.2867
    236  CB        -6.7660   -6.4310   38.3540 C.3   142  LEU142      0.0270
    237  CG        -6.2190   -6.0650   39.7260 C.3   142  LEU142      0.0019
    238  CD1       -5.9040   -4.6200   39.6350 C.3   142  LEU142      0.0001
    239  CD2       -7.1820   -6.3230   40.8740 C.3   142  LEU142      0.0001
@<TRIPOS>BOND
     1   170   171    1
     2   230   229    1
     3   176   175    2
     4   171   172    1
     5   171   174    1
     6   177   175   am
     7   175   174    1
     8   229   231    1
     9   229   226    1
    10   172   178   am
    11   172   173    2
    12   180   181    2
    13   180   179    1
    14   178   179    1
    15   212   213    2
    16   212   211    1
    17   227   228    2
    18   227   226    1
    19   199   200    2
    20   199   198    1
    21   201   198    1
    22   189   190    1
    23   166   165    2
    24   179   182    1
    25   165   164    1
    26   226   225    1
    27   214   211    1
    28   214   215    1
    29   216   215    1
    30   185   187   ar
    31   185   183   ar
    32   182   183    1
    33   210   211    1
    34   198   197    1
    35    17    18    1
    36   187   188   ar
    37   197   191   am
    38   225   220   am
    39    15    14    1
    40   183   184   ar
    41    22    21    1
    42   215   217    1
    43    12    11    2
    44   190   191    1
    45   190   193    1
    46   191   192    2
    47    21    18    1
    48    21    23    1
    49   218   219    1
    50   164   163    1
    51   164   167    1
    52    18    19    1
    53   168   167    1
    54   188   186   ar
    55    33    32   ar
    56    33    31   ar
    57   220   221    2
    58   220   219    1
    59   184   186   ar
    60    10    11    1
    61    10     9    1
    62    10    13    1
    63   202   203    1
    64    14    13    1
    65    14    16    1
    66   204   205    2
    67   204   203    1
    68   193   194    1
    69   234   233    1
    70   234   235    2
    71   232   233    1
    72   167   169    1
    73   219   222    1
    74    32    30   ar
    75    31    29   ar
    76   203   206    1
    77   233   236    1
    78    19    20    2
    79   236   237    1
    80   222   223    1
    81   222   224    1
    82   206   208    1
    83   206   207    1
    84   148   147    2
    85   194   196    1
    86   194   195    1
    87    30    29   ar
    88    29    28    1
    89   158   157    2
    90   207   209    1
    91   147   146    1
    92   238   237    1
    93   157   156    1
    94   237   239    1
    95    24    25    1
    96   149   146    1
    97   149   150    1
    98    28    25    1
    99   146   145    1
   100     4     3    2
   101    25    26    1
   102   156   159    1
   103   156   155    1
   104   150   152   ar
   105   150   151   ar
   106   152   154   ar
   107    43    41   ar
   108    43    44   ar
   109   124   126   ar
   110   124   122   ar
   111   159   160    1
   112     3     2    1
   113   105   103    1
   114   104   103    1
   115   126   127   ar
   116   145   139   am
   117    41    39   ar
   118     1     2    1
   119     2     5    1
   120   121   122    1
   121   121   118    1
   122   151   153   ar
   123   122   123   ar
   124    44    42   ar
   125    26    34   am
   126    26    27    2
   127   154   153   ar
   128   132   131    2
   129   103   102    1
   130    34    35    1
   131     7     6    1
   132   140   139    2
   133   139   138    1
   134   127   128    1
   135   127   125   ar
   136   131   130    1
   137   120   119    2
   138   160   161    1
   139   160   162    1
   140   123   125   ar
   141    92    91    1
   142   119   118    1
   143    39    38    1
   144    39    40   ar
   145   118   117    1
   146     5     6    1
   147   137   138    1
   148     6     8    1
   149   102    99    1
   150    42    40   ar
   151    38    35    1
   152   138   141    1
   153    35    36    1
   154   133   130    1
   155   133   134    1
   156    99    98    1
   157    99   100    1
   158   130   129    1
   159    36    37    2
   160    93    91    1
   161   101   100    2
   162    91    88    1
   163    98    96   am
   164    97    96    2
   165   135   134    1
   166   141   142    1
   167    90    89    2
   168    96    95    1
   169   134   136    1
   170    79    77   ar
   171    79    78   ar
   172    89    88    1
   173    88    87    1
   174   142   143    1
   175    77    75   ar
   176    95    94    1
   177   108   109    2
   178   108   107    1
   179   143   144    1
   180    45    46    1
   181    78    76   ar
   182    87    82   am
   183    75    76   ar
   184    75    74    1
   185    57    59   ar
   186    57    55   ar
   187   106   107    1
   188    73    72    2
   189   107   110    1
   190    59    60   ar
   191    54    55    1
   192    54    51    1
   193   116   114    1
   194    55    56   ar
   195   111   110    1
   196   111   112    1
   197    60    58   ar
   198    72    71    1
   199    56    58   ar
   200   113   114    2
   201   113   112    1
   202    50    51    1
   203    50    47   am
   204   114   115    1
   205    83    82    2
   206    82    81    1
   207    74    71    1
   208    46    49    1
   209    46    47    1
   210    51    52    1
   211    52    53    2
   212    47    48    2
   213    71    70    1
   214    81    80    1
   215    81    84    1
   216    85    84    1
   217    64    63    2
   218    63    62    1
   219    84    86    1
   220    65    62    1
   221    65    66    1
   222    62    61    1
   223    68    67    1
   224    68    69    1
   225    66    67    1
