@<TRIPOS>MOLECULE
tmp/3bcqC00.pdb
 219 209 0 0 0
SMALL
GASTEIGER

@<TRIPOS>ATOM
      1  N        -26.5140    0.9110   25.7360 N.3    32  MET32      -0.1245
      2  CA       -25.2740    1.0950   26.4540 C.3    32  MET32       0.1570
      3  C        -25.5140    0.7240   27.8910 C.2    32  MET32       0.2261
      4  O        -24.7490   -0.0600   28.4530 O.2    32  MET32      -0.2867
      5  CB       -24.7960    2.5400   26.3940 C.3    32  MET32       0.0387
      6  CG       -23.4290    2.6970   26.9770 C.3    32  MET32       0.0595
      7  SD       -22.7690    4.3550   26.8120 S.3    32  MET32      -0.1393
      8  CE       -23.8880    5.3440   27.6950 C.3    32  MET32       0.0692
      9  N        -21.3890    1.7940   32.7060 N.3    39  THR39      -0.1218
     10  CA       -21.7080    3.1630   32.3410 C.3    39  THR39       0.1862
     11  C        -22.8530    3.7700   33.2090 C.2    39  THR39       0.2287
     12  O        -23.1220    4.9670   33.1850 O.2    39  THR39      -0.2866
     13  CB       -22.0830    3.1910   30.8490 C.3    39  THR39       0.1770
     14  OG1      -23.2180    2.3190   30.6060 O.3    39  THR39      -0.2211
     15  CG2      -20.8400    2.7130   29.9450 C.3    39  THR39       0.0375
     16  N        -22.8010    6.9880   35.6840 N.3    42  TYR42      -0.1227
     17  CA       -22.7060    8.3960   35.2500 C.3    42  TYR42       0.1736
     18  C        -24.0450    9.0730   35.2800 C.2    42  TYR42       0.2595
     19  O        -24.1350   10.2830   35.3030 O.2    42  TYR42      -0.2718
     20  CB       -22.1260    8.5210   33.8450 C.3    42  TYR42       0.0548
     21  CG       -20.6580    8.2030   33.7510 C.ar   42  TYR42      -0.0200
     22  CD1      -19.6920    9.1510   34.1800 C.ar   42  TYR42      -0.0009
     23  CD2      -20.2030    6.9080   33.2880 C.ar   42  TYR42      -0.0009
     24  CE1      -18.2950    8.8420   34.0920 C.ar   42  TYR42       0.0417
     25  CE2      -18.8440    6.6090   33.2080 C.ar   42  TYR42       0.0417
     26  CZ       -17.8960    7.5960   33.5870 C.ar   42  TYR42       0.1957
     27  OH       -16.5610    7.3350   33.5350 O.3    42  TYR42      -0.2866
     28  N        -25.0830    8.2470   35.2740 N.am   43  PHE43      -0.1976
     29  CA       -26.4760    8.6660   35.1500 C.3    43  PHE43       0.1639
     30  C        -27.2510    8.2330   36.4110 C.2    43  PHE43       0.2290
     31  O        -28.4840    8.2750   36.4390 O.2    43  PHE43      -0.2864
     32  CB       -27.1010    7.9970   33.9000 C.3    43  PHE43       0.0560
     33  CG       -26.3280    8.2270   32.6090 C.ar   43  PHE43      -0.0200
     34  CD1      -26.5190    9.4020   31.8520 C.ar   43  PHE43      -0.0042
     35  CD2      -25.3490    7.3120   32.1800 C.ar   43  PHE43      -0.0042
     36  CE1      -25.7700    9.6150   30.6930 C.ar   43  PHE43      -0.0003
     37  CE2      -24.6660    7.5080   30.9840 C.ar   43  PHE43      -0.0003
     38  CZ       -24.8970    8.6820   30.2410 C.ar   43  PHE43      -0.0000
     39  N        -28.1220    9.6430   38.9990 N.3    45  HIS45      -0.1226
     40  CA       -29.0860   10.6540   39.3830 C.3    45  HIS45       0.1752
     41  C        -30.3460   10.7090   38.5080 C.2    45  HIS45       0.2596
     42  O        -31.2080   11.6310   38.6620 O.2    45  HIS45      -0.2718
     43  CB       -28.4080   12.0150   39.2870 C.3    45  HIS45       0.0759
     44  CG       -27.8890   12.3120   37.9230 C.ar   45  HIS45       0.0818
     45  ND1      -28.5070   13.2100   37.0720 N.ar   45  HIS45      -0.2268
     46  CD2      -26.8720   11.7510   37.2170 C.ar   45  HIS45       0.1154
     47  CE1      -27.8350   13.2440   35.9310 C.ar   45  HIS45       0.1986
     48  NE2      -26.8600   12.3540   35.9880 N.ar   45  HIS45      -0.2212
     49  N        -30.4790    9.7820   37.5530 N.am   46  TRP46      -0.1976
     50  CA       -31.7550    9.7430   36.8160 C.3    46  TRP46       0.1640
     51  C        -32.7350    8.8080   37.5520 C.2    46  TRP46       0.2290
     52  O        -32.3100    7.9000   38.2790 O.2    46  TRP46      -0.2864
     53  CB       -31.6060    9.2410   35.3900 C.3    46  TRP46       0.0576
     54  CG       -30.9300   10.1430   34.4110 C.ar   46  TRP46       0.0006
     55  CD1      -30.6160   11.4810   34.5570 C.ar   46  TRP46       0.0946
     56  CD2      -30.5180    9.7780   33.0890 C.ar   46  TRP46       0.0152
     57  NE1      -30.0210   11.9410   33.4050 N.ar   46  TRP46      -0.2442
     58  CE2      -29.9710   10.9230   32.4900 C.ar   46  TRP46       0.0810
     59  CE3      -30.6010    8.5860   32.3350 C.ar   46  TRP46       0.0012
     60  CZ2      -29.4510   10.9000   31.2350 C.ar   46  TRP46       0.0191
     61  CZ3      -30.1100    8.5720   31.1080 C.ar   46  TRP46       0.0001
     62  CH2      -29.5310    9.7220   30.5530 C.ar   46  TRP46       0.0015
     63  N        -32.6830   11.9220   27.0350 N.3    59  HIS59      -0.1241
     64  CA       -31.2550   12.0720   26.8150 C.3    59  HIS59       0.1621
     65  C        -30.7360   11.5640   25.4460 C.2    59  HIS59       0.2264
     66  O        -29.8810   12.1940   24.8990 O.2    59  HIS59      -0.2867
     67  CB       -30.4130   11.5700   27.9920 C.3    59  HIS59       0.0745
     68  CG       -28.9600   11.9310   27.8620 C.ar   59  HIS59       0.0817
     69  ND1      -28.4960   13.2090   28.0350 N.ar   59  HIS59      -0.2268
     70  CD2      -27.8900   11.1970   27.4760 C.ar   59  HIS59       0.1154
     71  CE1      -27.1900   13.2330   27.8700 C.ar   59  HIS59       0.1986
     72  NE2      -26.7980   12.0220   27.5130 N.ar   59  HIS59      -0.2212
     73  N        -31.0190   14.0640   22.8400 N.3    62  THR62      -0.1203
     74  CA       -29.9140   15.0390   23.0990 C.3    62  THR62       0.1994
     75  C        -28.5730   14.6170   22.4790 C.2    62  THR62       0.2617
     76  O        -27.9630   15.4240   21.7670 O.2    62  THR62      -0.2717
     77  CB       -29.7430   15.2910   24.5840 C.3    62  THR62       0.1784
     78  OG1      -30.9410   15.8950   25.0740 O.3    62  THR62      -0.2211
     79  CG2      -28.5860   16.2280   24.8670 C.3    62  THR62       0.0376
     80  N        -28.1720   13.3480   22.6910 N.am   63  VAL63      -0.1979
     81  CA       -26.9320   12.8590   22.1380 C.3    63  VAL63       0.1595
     82  C        -27.0040   13.0840   20.6630 C.2    63  VAL63       0.2287
     83  O        -26.0770   13.6590   20.0910 O.2    63  VAL63      -0.2864
     84  CB       -26.5570   11.3480   22.3960 C.3    63  VAL63       0.0276
     85  CG1      -25.2380   11.0530   21.6750 C.3    63  VAL63       0.0022
     86  CG2      -26.4680   10.9220   23.8890 C.3    63  VAL63       0.0022
     87  N        -26.8110   16.4900   19.1640 N.3    66  SER66      -0.1202
     88  CA       -25.4770   16.9760   19.1620 C.3    66  SER66       0.2020
     89  C        -24.6910   16.2410   18.0640 C.2    66  SER66       0.2618
     90  O        -23.8420   16.8380   17.3550 O.2    66  SER66      -0.2717
     91  CB       -24.9460   16.7820   20.5570 C.3    66  SER66       0.2103
     92  OG       -23.5430   16.9140   20.6650 O.3    66  SER66      -0.2182
     93  N        -25.0010   14.9720   17.8520 N.am   67  VAL67      -0.1979
     94  CA       -24.3980   14.3030   16.7160 C.3    67  VAL67       0.1595
     95  C        -24.8300   14.9690   15.3710 C.2    67  VAL67       0.2287
     96  O        -24.0070   15.1560   14.5160 O.2    67  VAL67      -0.2864
     97  CB       -24.5790   12.7350   16.7480 C.3    67  VAL67       0.0276
     98  CG1      -24.0590   12.0850   15.4720 C.3    67  VAL67       0.0022
     99  CG2      -23.8570   12.1100   17.9540 C.3    67  VAL67       0.0022
    100  N        -17.8130   21.0590   19.0000 N.3    81  LEU81      -0.1245
    101  CA       -17.8100   20.0290   20.0670 C.3    81  LEU81       0.1561
    102  C        -17.2420   20.4570   21.4200 C.2    81  LEU81       0.2260
    103  O        -17.5840   19.8570   22.4080 O.2    81  LEU81      -0.2867
    104  CB       -17.0910   18.7150   19.5890 C.3    81  LEU81       0.0270
    105  CG       -17.8180   17.4160   19.2110 C.3    81  LEU81       0.0019
    106  CD1      -19.2150   17.6530   18.9130 C.3    81  LEU81       0.0001
    107  CD2      -17.1670   16.6190   18.0460 C.3    81  LEU81       0.0001
    108  N        -18.8440   20.5390   24.5900 N.3    84  LEU84      -0.1245
    109  CA       -19.1000   19.1750   25.1400 C.3    84  LEU84       0.1561
    110  C        -17.8490   18.4760   25.6230 C.2    84  LEU84       0.2260
    111  O        -17.9070   17.5450   26.4160 O.2    84  LEU84      -0.2867
    112  CB       -19.7980   18.3260   24.0830 C.3    84  LEU84       0.0270
    113  CG       -21.1380   18.8650   23.5260 C.3    84  LEU84       0.0019
    114  CD1      -21.8430   17.8120   22.5690 C.3    84  LEU84       0.0001
    115  CD2      -22.0400   19.2940   24.6590 C.3    84  LEU84       0.0001
    116  N        -17.5950   19.7330   29.3750 N.3    87  LEU87      -0.1231
    117  CA       -18.5840   18.9180   30.1090 C.3    87  LEU87       0.1693
    118  C        -18.0310   17.5370   30.4210 C.2    87  LEU87       0.2592
    119  O        -17.8270   17.1830   31.5650 O.2    87  LEU87      -0.2718
    120  CB       -19.9410   18.8460   29.3470 C.3    87  LEU87       0.0284
    121  CG       -21.0680   18.1060   30.1130 C.3    87  LEU87       0.0019
    122  CD1      -21.4800   18.6960   31.6370 C.3    87  LEU87       0.0001
    123  CD2      -22.2760   18.0130   29.1480 C.3    87  LEU87       0.0001
    124  N        -17.7190   16.7740   29.3940 N.am   88  HIS88      -0.1976
    125  CA       -17.4950   15.3900   29.5860 C.3    88  HIS88       0.1656
    126  C        -16.1370   15.1270   30.1760 C.2    88  HIS88       0.2291
    127  O        -15.9900   14.2160   30.9950 O.2    88  HIS88      -0.2864
    128  CB       -17.5870   14.6950   28.2510 C.3    88  HIS88       0.0771
    129  CG       -18.9940   14.5190   27.7990 C.ar   88  HIS88       0.0820
    130  ND1      -19.6520   15.4580   27.0100 N.ar   88  HIS88      -0.2267
    131  CD2      -19.8800   13.5240   28.0390 C.ar   88  HIS88       0.1154
    132  CE1      -20.8450   14.9990   26.7160 C.ar   88  HIS88       0.1986
    133  NE2      -21.0350   13.8660   27.3810 N.ar   88  HIS88      -0.2212
    134  N        -17.4430   16.0630   34.3020 N.3    92  LEU92      -0.1245
    135  CA       -17.8530   14.6470   34.5650 C.3    92  LEU92       0.1561
    136  C        -16.7490   13.6130   34.5460 C.2    92  LEU92       0.2260
    137  O        -16.9660   12.5030   34.9280 O.2    92  LEU92      -0.2867
    138  CB       -18.8990   14.2160   33.5520 C.3    92  LEU92       0.0270
    139  CG       -20.1470   15.0760   33.2670 C.3    92  LEU92       0.0019
    140  CD1      -20.9260   14.5330   32.0610 C.3    92  LEU92       0.0001
    141  CD2      -21.0450   15.1680   34.5370 C.3    92  LEU92       0.0001
    142  N        -15.6420   11.6630   32.5190 N.3    94  VAL94      -0.1245
    143  CA       -15.9920   10.4720   31.8290 C.3    94  VAL94       0.1561
    144  C        -14.8080    9.7250   31.2640 C.2    94  VAL94       0.2260
    145  O        -14.0250   10.2740   30.5160 O.2    94  VAL94      -0.2867
    146  CB       -17.0570   10.7480   30.6780 C.3    94  VAL94       0.0252
    147  CG1      -17.2740    9.5160   29.7670 C.3    94  VAL94       0.0019
    148  CG2      -18.3900   11.2850   31.2480 C.3    94  VAL94       0.0019
    149  N        -15.5210    4.9180   27.5290 N.3    98  ASN98      -0.1225
    150  CA       -16.9050    4.7860   27.2810 C.3    98  ASN98       0.1785
    151  C        -17.3270    5.4360   25.9750 C.2    98  ASN98       0.2597
    152  O        -18.3910    5.0990   25.3960 O.2    98  ASN98      -0.2718
    153  CB       -17.6850    5.2720   28.4890 C.3    98  ASN98       0.1169
    154  CG       -17.2190    4.6200   29.7540 C.2    98  ASN98       0.2627
    155  OD1      -17.1640    3.4110   29.8390 O.2    98  ASN98      -0.2716
    156  ND2      -16.8820    5.4000   30.7260 N.am   98  ASN98      -0.0877
    157  N        -16.4700    6.3290   25.4550 N.am   99  PHE99      -0.1976
    158  CA       -16.7700    6.9610   24.2090 C.3    99  PHE99       0.1639
    159  C        -16.8550    5.8610   23.2230 C.2    99  PHE99       0.2290
    160  O        -17.8030    5.8290   22.4770 O.2    99  PHE99      -0.2864
    161  CB       -15.8440    8.1710   23.8510 C.3    99  PHE99       0.0560
    162  CG       -16.1120    9.4360   24.7400 C.ar   99  PHE99      -0.0200
    163  CD1      -17.3340   10.0970   24.7140 C.ar   99  PHE99      -0.0042
    164  CD2      -15.1470    9.9260   25.6080 C.ar   99  PHE99      -0.0042
    165  CE1      -17.5870   11.2090   25.5470 C.ar   99  PHE99      -0.0003
    166  CE2      -15.4160   11.0490   26.4740 C.ar   99  PHE99      -0.0003
    167  CZ       -16.5960   11.6790   26.4420 C.ar   99  PHE99      -0.0000
    168  N        -20.0810    3.8940   23.4920 N.3   102  LEU102     -0.1231
    169  CA       -21.2770    4.5350   22.9530 C.3   102  LEU102      0.1693
    170  C        -21.2670    4.4690   21.4750 C.2   102  LEU102      0.2592
    171  O        -22.2980    4.2000   20.8210 O.2   102  LEU102     -0.2718
    172  CB       -21.4350    5.9970   23.3850 C.3   102  LEU102      0.0284
    173  CG       -22.7800    6.7610   23.0360 C.3   102  LEU102      0.0019
    174  CD1      -24.1820    6.0750   23.4220 C.3   102  LEU102      0.0001
    175  CD2      -22.8050    8.1030   23.7930 C.3   102  LEU102      0.0001
    176  N        -20.1150    4.6780   20.8790 N.am  103  SER103     -0.1952
    177  CA       -20.1490    4.7160   19.4140 C.3   103  SER103      0.1924
    178  C        -20.4250    3.3800   18.8560 C.2   103  SER103      0.2314
    179  O        -21.1650    3.2570   17.9410 O.2   103  SER103     -0.2863
    180  CB       -18.8430    5.1640   18.8990 C.3   103  SER103      0.2116
    181  OG       -17.9640    4.2300   19.3870 O.3   103  SER103     -0.2180
    182  N        -24.3520    2.9240   19.1530 N.3   106  LEU106     -0.1245
    183  CA       -24.7070    3.6990   17.9790 C.3   106  LEU106      0.1561
    184  C        -24.6940    2.9370   16.6830 C.2   106  LEU106      0.2260
    185  O        -25.7560    2.8760   16.0410 O.2   106  LEU106     -0.2867
    186  CB       -23.6870    4.8080   17.8860 C.3   106  LEU106      0.0270
    187  CG       -24.4760    6.0120   18.0660 C.3   106  LEU106      0.0019
    188  CD1      -23.8930    7.1740   18.9430 C.3   106  LEU106      0.0001
    189  CD2      -24.4970    6.3110   16.5360 C.3   106  LEU106      0.0001
    190  N        -17.3280    8.8350   14.3020 N.3   130  LEU130     -0.1245
    191  CA       -17.5000    8.7080   15.7730 C.3   130  LEU130      0.1561
    192  C        -16.1960    8.8130   16.5870 C.2   130  LEU130      0.2260
    193  O        -16.2060    9.3900   17.6780 O.2   130  LEU130     -0.2867
    194  CB       -18.2580    7.4270   16.0830 C.3   130  LEU130      0.0270
    195  CG       -19.6860    7.5800   15.6740 C.3   130  LEU130      0.0019
    196  CD1      -20.3570    6.3220   15.9460 C.3   130  LEU130      0.0001
    197  CD2      -20.4700    8.6970   16.5200 C.3   130  LEU130      0.0001
    198  N        -15.1590   12.4700   16.7110 N.3   133  LEU133     -0.1231
    199  CA       -15.9650   13.0320   17.7230 C.3   133  LEU133      0.1693
    200  C        -15.4230   12.6680   19.0960 C.2   133  LEU133      0.2592
    201  O        -15.1680   13.5290   19.9060 O.2   133  LEU133     -0.2718
    202  CB       -17.2590   12.3360   17.4500 C.3   133  LEU133      0.0284
    203  CG       -18.5340   12.5260   18.1150 C.3   133  LEU133      0.0019
    204  CD1      -18.3220   13.0460   19.5210 C.3   133  LEU133      0.0001
    205  CD2      -19.1490   13.4590   17.1290 C.3   133  LEU133      0.0001
    206  N        -15.2100   11.3910   19.3940 N.am  134  SER134     -0.1952
    207  CA       -14.4470   11.0550   20.5980 C.3   134  SER134      0.1924
    208  C        -13.1440   11.8840   20.7990 C.2   134  SER134      0.2314
    209  O        -12.8980   12.3940   21.8980 O.2   134  SER134     -0.2863
    210  CB       -14.1590    9.5500   20.6750 C.3   134  SER134      0.2116
    211  OG       -13.4240    9.1860   21.7330 O.3   134  SER134     -0.2180
    212  N        -14.0170   15.2340   21.8550 N.3   137  LEU137     -0.1245
    213  CA       -14.4530   15.2880   23.2610 C.3   137  LEU137      0.1561
    214  C        -13.3250   15.1070   24.2510 C.2   137  LEU137      0.2260
    215  O        -13.4680   15.4000   25.4280 O.2   137  LEU137     -0.2867
    216  CB       -15.4980   14.2520   23.4920 C.3   137  LEU137      0.0270
    217  CG       -16.7140   14.7560   22.7470 C.3   137  LEU137      0.0019
    218  CD1      -17.6370   13.5830   22.6700 C.3   137  LEU137      0.0001
    219  CD2      -17.3370   15.9760   23.4490 C.3   137  LEU137      0.0001
@<TRIPOS>BOND
     1   190   191    1
     2    96    95    2
     3    95    94    1
     4    98    97    1
     5   195   196    1
     6   195   194    1
     7   195   197    1
     8   191   194    1
     9   191   192    1
    10   185   184    2
    11   189   187    1
    12   192   193    2
    13   184   183    1
    14   198   199    1
    15    94    97    1
    16    94    93    1
    17    97    99    1
    18   205   203    1
    19    90    89    2
    20   202   199    1
    21   202   203    1
    22   199   200    1
    23    93    89   am
    24   186   183    1
    25   186   187    1
    26   179   178    2
    27   183   182    1
    28   107   105    1
    29    89    88    1
    30   187   188    1
    31   203   204    1
    32   178   177    1
    33   180   181    1
    34   180   177    1
    35   106   105    1
    36   100   101    1
    37   200   206   am
    38   200   201    2
    39    88    87    1
    40    88    91    1
    41   105   104    1
    42   206   207    1
    43   177   176    1
    44   104   101    1
    45   101   102    1
    46    83    82    2
    47    91    92    1
    48   207   210    1
    49   207   208    1
    50    82    81    1
    51   210   211    1
    52   208   209    2
    53   171   170    2
    54   176   170   am
    55   102   103    2
    56   170   169    1
    57    85    84    1
    58    76    75    2
    59   212   213    1
    60    81    84    1
    61    81    80    1
    62    84    86    1
    63   160   159    2
    64    75    80   am
    65    75    74    1
    66   114   113    1
    67   218   217    1
    68   217   219    1
    69   217   216    1
    70    73    74    1
    71   169   172    1
    72   169   168    1
    73   173   172    1
    74   173   174    1
    75   173   175    1
    76    74    77    1
    77   159   158    1
    78   213   216    1
    79   213   214    1
    80   113   112    1
    81   113   115    1
    82   161   158    1
    83   161   162    1
    84   112   109    1
    85   158   157    1
    86   214   215    2
    87    77    79    1
    88    77    78    1
    89   108   109    1
    90   163   162   ar
    91   163   165   ar
    92   162   164   ar
    93    66    65    2
    94   109   110    1
    95   152   151    2
    96    65    64    1
    97   157   151   am
    98   165   167   ar
    99   164   166   ar
   100   110   111    2
   101     1     2    1
   102   151   150    1
   103     5     2    1
   104     5     6    1
   105   167   166   ar
   106     2     3    1
   107   132   130   ar
   108   132   133   ar
   109     7     6    1
   110     7     8    1
   111    64    63    1
   112    64    67    1
   113   130   129   ar
   114   150   149    1
   115   150   153    1
   116   133   131   ar
   117    70    72   ar
   118    70    68   ar
   119    72    71   ar
   120   129   131   ar
   121   129   128    1
   122    68    67    1
   123    68    69   ar
   124    71    69   ar
   125     3     4    2
   126   128   125    1
   127   153   154    1
   128   123   121    1
   129   120   117    1
   130   120   121    1
   131   116   117    1
   132   124   125    1
   133   124   118   am
   134   125   126    1
   135   154   155    2
   136   154   156   am
   137   147   146    1
   138    15    13    1
   139   117   118    1
   140   121   122    1
   141   126   127    2
   142    38    36   ar
   143    38    37   ar
   144   118   119    2
   145   145   144    2
   146    62    61   ar
   147    62    60   ar
   148    14    13    1
   149   146   148    1
   150   146   143    1
   151    36    34   ar
   152    13    10    1
   153    37    35   ar
   154    61    59   ar
   155    60    58   ar
   156   144   143    1
   157   143   142    1
   158    34    33   ar
   159   140   139    1
   160    35    33   ar
   161    59    56   ar
   162    10     9    1
   163    10    11    1
   164    58    56   ar
   165    58    57   ar
   166    33    32    1
   167    56    54   ar
   168    12    11    2
   169    25    23   ar
   170    25    26   ar
   171   139   138    1
   172   139   141    1
   173    23    21   ar
   174    57    55   ar
   175    27    26    1
   176   138   135    1
   177    26    24   ar
   178    21    20    1
   179    21    22   ar
   180    20    17    1
   181    32    29    1
   182    24    22   ar
   183   134   135    1
   184    54    55   ar
   185    54    53    1
   186   136   135    1
   187   136   137    2
   188    29    28    1
   189    29    30    1
   190    17    18    1
   191    17    16    1
   192    28    18   am
   193    18    19    2
   194    53    50    1
   195    47    48   ar
   196    47    45   ar
   197    48    46   ar
   198    30    31    2
   199    50    51    1
   200    50    49    1
   201    45    44   ar
   202    46    44   ar
   203    51    52    2
   204    49    41   am
   205    44    43    1
   206    41    42    2
   207    41    40    1
   208    39    40    1
   209    43    40    1
