@<TRIPOS>MOLECULE
tmp/3bcrA00.pdb
 114 111 0 0 0
SMALL
GASTEIGER

@<TRIPOS>ATOM
      1  N         33.9960   30.9000   36.7210 N.3   265  ASN265     -0.1225
      2  CA        34.6980   31.0380   35.4570 C.3   265  ASN265      0.1785
      3  C         34.4380   29.8520   34.5480 C.2   265  ASN265      0.2597
      4  O         34.5800   28.6970   34.9530 O.2   265  ASN265     -0.2718
      5  CB        36.2050   31.2140   35.6800 C.3   265  ASN265      0.1169
      6  CG        36.5270   32.4120   36.5540 C.2   265  ASN265      0.2627
      7  OD1       35.9750   33.5050   36.3690 O.2   265  ASN265     -0.2716
      8  ND2       37.4170   32.2120   37.5180 N.am  265  ASN265     -0.0877
      9  N         34.0400   30.1530   33.3220 N.am  266  ASP266     -0.1960
     10  CA        33.8390   29.1370   32.3130 C.3   266  ASP266      0.1840
     11  C         34.9920   29.2530   31.3260 C.2   266  ASP266      0.2622
     12  O         35.1870   30.3100   30.7180 O.2   266  ASP266     -0.2715
     13  CB        32.4990   29.3600   31.6120 C.3   266  ASP266      0.1450
     14  CG        32.2200   28.3260   30.5400 C.2   266  ASP266      0.3671
     15  OD1       31.7740   27.2140   30.8850 O.co2 266  ASP266     -0.2456
     16  OD2       32.4380   28.6340   29.3470 O.co2 266  ASP266     -0.2456
     17  N         35.7530   28.1700   31.1800 N.am  267  ASN267     -0.1958
     18  CA        36.8900   28.1200   30.2500 C.3   267  ASN267      0.1819
     19  C         37.8900   29.2630   30.4640 C.2   267  ASN267      0.2621
     20  O         38.2920   29.9400   29.5150 O.2   267  ASN267     -0.2715
     21  CB        36.4110   28.0870   28.7850 C.3   267  ASN267      0.1195
     22  CG        35.8500   26.7330   28.3790 C.2   267  ASN267      0.2630
     23  OD1       36.5250   25.9470   27.7190 O.2   267  ASN267     -0.2716
     24  ND2       34.6100   26.4530   28.7790 N.am  267  ASN267     -0.0877
     25  N         38.2750   29.4740   31.7210 N.am  268  PHE268     -0.1974
     26  CA        39.2330   30.5140   32.0830 C.3   268  PHE268      0.1639
     27  C         39.9210   30.1300   33.3850 C.2   268  PHE268      0.2290
     28  O         39.2620   29.7760   34.3640 O.2   268  PHE268     -0.2864
     29  CB        38.5450   31.8830   32.2080 C.3   268  PHE268      0.0560
     30  CG        39.4850   33.0140   32.5420 C.ar  268  PHE268     -0.0200
     31  CD1       40.3970   33.4860   31.6010 C.ar  268  PHE268     -0.0042
     32  CD2       39.4500   33.6170   33.7970 C.ar  268  PHE268     -0.0042
     33  CE1       41.2680   34.5300   31.9110 C.ar  268  PHE268     -0.0003
     34  CE2       40.3170   34.6650   34.1150 C.ar  268  PHE268     -0.0003
     35  CZ        41.2270   35.1200   33.1740 C.ar  268  PHE268     -0.0000
     36  N         41.9810   31.0950   36.6300 N.3   270  GLU270     -0.1245
     37  CA        42.2980   32.1370   37.5960 C.3   270  GLU270      0.1567
     38  C         43.1710   31.4760   38.6640 C.2   270  GLU270      0.2260
     39  O         42.7360   30.5330   39.3370 O.2   270  GLU270     -0.2867
     40  CB        41.0040   32.6890   38.2060 C.3   270  GLU270      0.0388
     41  CG        41.1400   34.0410   38.8980 C.3   270  GLU270      0.1160
     42  CD        39.8060   34.5880   39.4160 C.2   270  GLU270      0.3649
     43  OE1       39.8330   35.4870   40.2850 O.co2 270  GLU270     -0.2457
     44  OE2       38.7300   34.1240   38.9660 O.co2 270  GLU270     -0.2457
     45  N         44.0290   30.4630   27.5450 N.3   359  GLU359     -0.1245
     46  CA        43.6110   31.1260   28.7880 C.3   359  GLU359      0.1567
     47  C         42.8900   30.2090   29.7860 C.2   359  GLU359      0.2260
     48  O         42.7230   30.5680   30.9560 O.2   359  GLU359     -0.2867
     49  CB        42.7620   32.3750   28.5050 C.3   359  GLU359      0.0388
     50  CG        41.4710   32.1240   27.7270 C.3   359  GLU359      0.1160
     51  CD        41.6240   32.3320   26.2270 C.2   359  GLU359      0.3649
     52  OE1       42.6460   31.8990   25.6470 O.co2 359  GLU359     -0.2457
     53  OE2       40.7060   32.9300   25.6250 O.co2 359  GLU359     -0.2457
     54  N         30.7310   34.3450   25.8260 N.3   548  HIS548     -0.1226
     55  CA        32.1500   34.2650   25.4850 C.3   548  HIS548      0.1752
     56  C         32.4310   34.9550   24.1650 C.2   548  HIS548      0.2595
     57  O         31.5700   35.0010   23.2870 O.2   548  HIS548     -0.2718
     58  CB        32.5660   32.8110   25.3130 C.3   548  HIS548      0.0759
     59  CG        33.1540   32.1960   26.5380 C.ar  548  HIS548      0.0818
     60  ND1       34.4260   32.4950   26.9800 N.ar  548  HIS548     -0.2268
     61  CD2       32.6610   31.2690   27.3960 C.ar  548  HIS548      0.1154
     62  CE1       34.6830   31.7920   28.0700 C.ar  548  HIS548      0.1986
     63  NE2       33.6290   31.0410   28.3450 N.ar  548  HIS548     -0.2212
     64  N         33.6520   35.4590   24.0080 N.am  549  GLU549     -0.1979
     65  CA        34.0880   35.9480   22.7020 C.3   549  GLU549      0.1602
     66  C         34.1690   34.8260   21.6590 C.2   549  GLU549      0.2287
     67  O         33.8080   35.0340   20.5010 O.2   549  GLU549     -0.2864
     68  CB        35.4180   36.6900   22.8100 C.3   549  GLU549      0.0415
     69  CG        35.2560   38.1160   23.2910 C.3   549  GLU549      0.1163
     70  CD        36.5630   38.7230   23.7440 C.2   549  GLU549      0.3649
     71  OE1       37.1420   39.4980   22.9550 O.co2 549  GLU549     -0.2457
     72  OE2       37.0110   38.4180   24.8740 O.co2 549  GLU549     -0.2457
     73  N         31.1120   35.5630   33.2590 N.3   587  ALA587     -0.1245
     74  CA        31.9230   35.5180   34.4650 C.3   587  ALA587      0.1562
     75  C         32.0110   36.9580   34.9820 C.2   587  ALA587      0.2260
     76  O         32.1640   37.8880   34.1790 O.2   587  ALA587     -0.2867
     77  CB        33.2980   34.9560   34.1640 C.3   587  ALA587      0.0290
     78  N         34.1860   38.8590   36.3420 N.3   589  GLY589     -0.1210
     79  CA        35.3540   39.6810   35.9930 C.3   589  GLY589      0.1956
     80  C         35.6290   39.8390   34.5060 C.2   589  GLY589      0.2612
     81  O         36.6370   40.4370   34.1210 O.2   589  GLY589     -0.2717
     82  N         34.7350   39.3040   33.6750 N.am  590  TYR590     -0.1962
     83  CA        34.9150   39.2730   32.2250 C.3   590  TYR590      0.1771
     84  C         34.1850   40.4730   31.6330 C.2   590  TYR590      0.2619
     85  O         32.9850   40.4070   31.3220 O.2   590  TYR590     -0.2715
     86  CB        34.3620   37.9560   31.6620 C.3   590  TYR590      0.0574
     87  CG        34.7110   37.6060   30.2210 C.ar  590  TYR590     -0.0198
     88  CD1       34.3830   36.3450   29.7070 C.ar  590  TYR590     -0.0009
     89  CD2       35.3640   38.5100   29.3770 C.ar  590  TYR590     -0.0009
     90  CE1       34.6770   35.9960   28.3950 C.ar  590  TYR590      0.0417
     91  CE2       35.6690   38.1720   28.0550 C.ar  590  TYR590      0.0417
     92  CZ        35.3230   36.9080   27.5730 C.ar  590  TYR590      0.1957
     93  OH        35.6150   36.5490   26.2750 O.3   590  TYR590     -0.2866
     94  N         34.9230   41.5700   31.4870 N.am  591  HIS591     -0.1973
     95  CA        34.3620   42.8510   31.0630 C.3   591  HIS591      0.1656
     96  C         33.7130   42.8160   29.6780 C.2   591  HIS591      0.2291
     97  O         32.6040   43.3170   29.5030 O.2   591  HIS591     -0.2864
     98  CB        35.4370   43.9430   31.1150 C.3   591  HIS591      0.0771
     99  CG        34.9610   45.2780   30.6360 C.ar  591  HIS591      0.0820
    100  ND1       35.2780   45.7780   29.3910 N.ar  591  HIS591     -0.2267
    101  CD2       34.1820   46.2120   31.2310 C.ar  591  HIS591      0.1154
    102  CE1       34.7210   46.9670   29.2420 C.ar  591  HIS591      0.1986
    103  NE2       34.0500   47.2550   30.3440 N.ar  591  HIS591     -0.2212
    104  N         40.3360   38.1620   18.1390 N.3   746  ARG746     -0.1245
    105  CA        40.9440   36.8320   18.0580 C.3   746  ARG746      0.1563
    106  C         40.0460   35.8290   17.3380 C.2   746  ARG746      0.2260
    107  O         40.5140   34.7880   16.8710 O.2   746  ARG746     -0.2867
    108  CB        41.2430   36.2840   19.4580 C.3   746  ARG746      0.0307
    109  CG        42.2640   37.0630   20.2750 C.3   746  ARG746      0.0489
    110  CD        42.2850   36.5440   21.7100 C.3   746  ARG746      0.2205
    111  NE        42.6850   35.1350   21.7740 N.pl3 746  ARG746     -0.0865
    112  CZ        42.3200   34.2850   22.7350 C.cat 746  ARG746      0.5346
    113  NH1       41.5220   34.6830   23.7230 N.pl3 746  ARG746      0.1354
    114  NH2       42.7480   33.0300   22.7040 N.pl3 746  ARG746      0.1354
@<TRIPOS>BOND
     1   107   106    2
     2   106   105    1
     3   105   104    1
     4   105   108    1
     5   108   109    1
     6   109   110    1
     7    67    66    2
     8    66    65    1
     9   110   111    1
    10   111   112    2
    11    65    68    1
    12    65    64    1
    13   114   112    1
    14   112   113    1
    15    68    69    1
    16    71    70   ar
    17    57    56    2
    18    69    70    1
    19    70    72   ar
    20    64    56   am
    21    56    55    1
    22    58    55    1
    23    58    59    1
    24    55    54    1
    25    53    51   ar
    26    52    51   ar
    27    51    50    1
    28    93    92    1
    29    59    60   ar
    30    59    61   ar
    31    60    62   ar
    32    61    63   ar
    33    45    46    1
    34    92    91   ar
    35    92    90   ar
    36    23    22    2
    37    50    49    1
    38    91    89   ar
    39    62    63   ar
    40    22    24   am
    41    22    21    1
    42    90    88   ar
    43    49    46    1
    44    21    18    1
    45    46    47    1
    46   102   100   ar
    47   102   103   ar
    48    16    14   ar
    49    89    87   ar
    50   100    99   ar
    51    97    96    2
    52    20    19    2
    53    96    95    1
    54    88    87   ar
    55    47    48    2
    56    87    86    1
    57    18    19    1
    58    18    17    1
    59   103   101   ar
    60    19    25   am
    61    14    15   ar
    62    14    13    1
    63    99    98    1
    64    99   101   ar
    65    12    11    2
    66    95    98    1
    67    95    94    1
    68    17    11   am
    69    85    84    2
    70    11    10    1
    71    94    84   am
    72    31    33   ar
    73    31    30   ar
    74    13    10    1
    75    84    83    1
    76    86    83    1
    77    25    26    1
    78    33    35   ar
    79    26    29    1
    80    26    27    1
    81    29    30    1
    82    83    82    1
    83    10     9    1
    84    30    32   ar
    85    35    34   ar
    86    73    74    1
    87     9     3   am
    88    27    28    2
    89    82    80   am
    90    32    34   ar
    91    81    80    2
    92    77    74    1
    93    76    75    2
    94    74    75    1
    95    80    79    1
    96     3     4    2
    97     3     2    1
    98     2     5    1
    99     2     1    1
   100     5     6    1
   101    79    78    1
   102     7     6    2
   103     6     8   am
   104    36    37    1
   105    37    40    1
   106    37    38    1
   107    40    41    1
   108    38    39    2
   109    41    42    1
   110    44    42   ar
   111    42    43   ar
