@<TRIPOS>MOLECULE
tmp/3bcuA00.pdb
 106 102 0 0 0
SMALL
GASTEIGER

@<TRIPOS>ATOM
      1  N         34.0830   31.0140   36.7780 N.3   265  ASN265     -0.1225
      2  CA        34.7930   31.1460   35.5090 C.3   265  ASN265      0.1785
      3  C         34.5330   29.9670   34.5830 C.2   265  ASN265      0.2597
      4  O         34.6790   28.8100   34.9790 O.2   265  ASN265     -0.2718
      5  CB        36.2990   31.3140   35.7380 C.3   265  ASN265      0.1169
      6  CG        36.6230   32.5120   36.6100 C.2   265  ASN265      0.2627
      7  OD1       36.1240   33.6210   36.3820 O.2   265  ASN265     -0.2716
      8  ND2       37.4550   32.2950   37.6200 N.am  265  ASN265     -0.0877
      9  N         34.1310   30.2720   33.3560 N.am  266  ASP266     -0.1974
     10  CA        33.9310   29.2590   32.3310 C.3   266  ASP266      0.1709
     11  C         35.0930   29.3720   31.3500 C.2   266  ASP266      0.2293
     12  O         35.3170   30.4400   30.7810 O.2   266  ASP266     -0.2864
     13  CB        32.6000   29.5040   31.6160 C.3   266  ASP266      0.1436
     14  CG        32.2760   28.4320   30.5840 C.2   266  ASP266      0.3671
     15  OD1       31.7970   27.3500   30.9770 O.co2 266  ASP266     -0.2456
     16  OD2       32.4820   28.6810   29.3730 O.co2 266  ASP266     -0.2456
     17  N         38.3480   29.5760   31.7130 N.3   268  PHE268     -0.1241
     18  CA        39.3100   30.6140   32.0760 C.3   268  PHE268      0.1605
     19  C         39.9930   30.2640   33.3930 C.2   268  PHE268      0.2264
     20  O         39.3250   29.9610   34.3820 O.2   268  PHE268     -0.2867
     21  CB        38.6280   31.9850   32.1710 C.3   268  PHE268      0.0534
     22  CG        39.5680   33.1080   32.5140 C.ar  268  PHE268     -0.0203
     23  CD1       40.4600   33.6020   31.5660 C.ar  268  PHE268     -0.0042
     24  CD2       39.5620   33.6720   33.7870 C.ar  268  PHE268     -0.0042
     25  CE1       41.3410   34.6390   31.8830 C.ar  268  PHE268     -0.0003
     26  CE2       40.4350   34.7110   34.1150 C.ar  268  PHE268     -0.0003
     27  CZ        41.3270   35.1940   33.1640 C.ar  268  PHE268     -0.0000
     28  N         42.0240   31.2090   36.6520 N.3   270  GLU270     -0.1245
     29  CA        42.3550   32.2440   37.6240 C.3   270  GLU270      0.1567
     30  C         43.2070   31.5840   38.7090 C.2   270  GLU270      0.2260
     31  O         42.7370   30.6900   39.4210 O.2   270  GLU270     -0.2867
     32  CB        41.0690   32.8280   38.2210 C.3   270  GLU270      0.0388
     33  CG        41.2270   34.1950   38.8820 C.3   270  GLU270      0.1160
     34  CD        39.9280   34.7110   39.5010 C.2   270  GLU270      0.3649
     35  OE1       40.0080   35.5150   40.4570 O.co2 270  GLU270     -0.2457
     36  OE2       38.8270   34.3160   39.0440 O.co2 270  GLU270     -0.2457
     37  N         44.1760   30.5410   27.5930 N.3   359  GLU359     -0.1245
     38  CA        43.7760   31.2140   28.8340 C.3   359  GLU359      0.1567
     39  C         43.0340   30.3050   29.8200 C.2   359  GLU359      0.2260
     40  O         42.8570   30.6660   30.9870 O.2   359  GLU359     -0.2867
     41  CB        42.9380   32.4670   28.5450 C.3   359  GLU359      0.0388
     42  CG        41.6270   32.2120   27.8130 C.3   359  GLU359      0.1160
     43  CD        41.7350   32.3860   26.3050 C.2   359  GLU359      0.3649
     44  OE1       42.7570   31.9790   25.7070 O.co2 359  GLU359     -0.2457
     45  OE2       40.7810   32.9310   25.7150 O.co2 359  GLU359     -0.2457
     46  N         30.8250   34.4270   25.8840 N.3   548  HIS548     -0.1226
     47  CA        32.2500   34.3260   25.5690 C.3   548  HIS548      0.1752
     48  C         32.5160   34.9800   24.2300 C.2   548  HIS548      0.2595
     49  O         31.6680   34.9440   23.3370 O.2   548  HIS548     -0.2718
     50  CB        32.6620   32.8630   25.4330 C.3   548  HIS548      0.0759
     51  CG        33.1470   32.2400   26.7000 C.ar  548  HIS548      0.0818
     52  ND1       34.4130   32.4650   27.1990 N.ar  548  HIS548     -0.2268
     53  CD2       32.5540   31.3630   27.5480 C.ar  548  HIS548      0.1154
     54  CE1       34.5690   31.7740   28.3160 C.ar  548  HIS548      0.1986
     55  NE2       33.4560   31.0980   28.5520 N.ar  548  HIS548     -0.2212
     56  N         33.7070   35.5450   24.0680 N.am  549  GLU549     -0.1979
     57  CA        34.1230   36.0200   22.7520 C.3   549  GLU549      0.1602
     58  C         34.2070   34.8940   21.7170 C.2   549  GLU549      0.2287
     59  O         33.8410   35.0960   20.5560 O.2   549  GLU549     -0.2864
     60  CB        35.4540   36.7660   22.8400 C.3   549  GLU549      0.0415
     61  CG        35.3070   38.1760   23.3600 C.3   549  GLU549      0.1163
     62  CD        36.6310   38.7590   23.8000 C.2   549  GLU549      0.3649
     63  OE1       37.2390   39.4920   22.9950 O.co2 549  GLU549     -0.2457
     64  OE2       37.0610   38.4730   24.9380 O.co2 549  GLU549     -0.2457
     65  N         31.1740   35.6980   33.3340 N.3   587  ALA587     -0.1245
     66  CA        31.9910   35.6690   34.5390 C.3   587  ALA587      0.1562
     67  C         32.0760   37.1040   35.0640 C.2   587  ALA587      0.2260
     68  O         32.2260   38.0390   34.2690 O.2   587  ALA587     -0.2867
     69  CB        33.3710   35.1040   34.2410 C.3   587  ALA587      0.0290
     70  N         34.2520   38.9750   36.4120 N.3   589  GLY589     -0.1210
     71  CA        35.4190   39.7860   36.0400 C.3   589  GLY589      0.1956
     72  C         35.6650   39.9680   34.5520 C.2   589  GLY589      0.2612
     73  O         36.6310   40.6270   34.1540 O.2   589  GLY589     -0.2717
     74  N         34.7910   39.3900   33.7300 N.am  590  TYR590     -0.1962
     75  CA        34.9590   39.3750   32.2790 C.3   590  TYR590      0.1771
     76  C         34.2570   40.5950   31.6920 C.2   590  TYR590      0.2619
     77  O         33.0510   40.5580   31.3980 O.2   590  TYR590     -0.2715
     78  CB        34.3650   38.0790   31.7120 C.3   590  TYR590      0.0574
     79  CG        34.7200   37.7250   30.2770 C.ar  590  TYR590     -0.0198
     80  CD1       34.3590   36.4810   29.7550 C.ar  590  TYR590     -0.0009
     81  CD2       35.4160   38.6100   29.4470 C.ar  590  TYR590     -0.0009
     82  CE1       34.6580   36.1300   28.4510 C.ar  590  TYR590      0.0417
     83  CE2       35.7260   38.2670   28.1300 C.ar  590  TYR590      0.0417
     84  CZ        35.3410   37.0190   27.6410 C.ar  590  TYR590      0.1957
     85  OH        35.6370   36.6450   26.3450 O.3   590  TYR590     -0.2866
     86  N         35.0210   41.6730   31.5230 N.am  591  HIS591     -0.1973
     87  CA        34.4740   42.9580   31.0950 C.3   591  HIS591      0.1656
     88  C         33.8100   42.9060   29.7220 C.2   591  HIS591      0.2291
     89  O         32.6940   43.3910   29.5620 O.2   591  HIS591     -0.2864
     90  CB        35.5530   44.0440   31.1200 C.3   591  HIS591      0.0771
     91  CG        35.0570   45.3910   30.6990 C.ar  591  HIS591      0.0820
     92  ND1       35.3150   45.9250   29.4540 N.ar  591  HIS591     -0.2267
     93  CD2       34.3110   46.3110   31.3560 C.ar  591  HIS591      0.1154
     94  CE1       34.7540   47.1170   29.3640 C.ar  591  HIS591      0.1986
     95  NE2       34.1390   47.3760   30.5050 N.ar  591  HIS591     -0.2212
     96  N         40.4290   38.2400   18.1720 N.3   746  ARG746     -0.1245
     97  CA        41.0160   36.9020   18.1150 C.3   746  ARG746      0.1563
     98  C         40.1160   35.9060   17.3770 C.2   746  ARG746      0.2260
     99  O         40.5870   34.8730   16.8980 O.2   746  ARG746     -0.2867
    100  CB        41.2770   36.3730   19.5300 C.3   746  ARG746      0.0307
    101  CG        42.3780   37.0850   20.3130 C.3   746  ARG746      0.0489
    102  CD        42.3750   36.6190   21.7720 C.3   746  ARG746      0.2205
    103  NE        42.7180   35.1970   21.8990 N.pl3 746  ARG746     -0.0865
    104  CZ        42.2980   34.3980   22.8800 C.cat 746  ARG746      0.5346
    105  NH1       41.4940   34.8640   23.8340 N.pl3 746  ARG746      0.1354
    106  NH2       42.6740   33.1230   22.9030 N.pl3 746  ARG746      0.1354
@<TRIPOS>BOND
     1    99    98    2
     2    98    97    1
     3    97    96    1
     4    97   100    1
     5   100   101    1
     6   101   102    1
     7    59    58    2
     8    58    57    1
     9   102   103    1
    10   103   104    2
    11    57    60    1
    12    57    56    1
    13    60    61    1
    14   104   106    1
    15   104   105    1
    16    63    62   ar
    17    49    48    2
    18    61    62    1
    19    62    64   ar
    20    56    48   am
    21    48    47    1
    22    50    47    1
    23    50    51    1
    24    47    46    1
    25    44    43   ar
    26    45    43   ar
    27    43    42    1
    28    85    84    1
    29    51    52   ar
    30    51    53   ar
    31    52    54   ar
    32    53    55   ar
    33    37    38    1
    34    84    83   ar
    35    84    82   ar
    36    42    41    1
    37    83    81   ar
    38    54    55   ar
    39    82    80   ar
    40    41    38    1
    41    38    39    1
    42    94    92   ar
    43    94    95   ar
    44    16    14   ar
    45    81    79   ar
    46    92    91   ar
    47    89    88    2
    48    88    87    1
    49    80    79   ar
    50    39    40    2
    51    79    78    1
    52    95    93   ar
    53    14    15   ar
    54    14    13    1
    55    91    90    1
    56    91    93   ar
    57    12    11    2
    58    87    90    1
    59    87    86    1
    60    11    10    1
    61    77    76    2
    62    86    76   am
    63    23    25   ar
    64    23    22   ar
    65    13    10    1
    66    76    75    1
    67    78    75    1
    68    17    18    1
    69    25    27   ar
    70    18    21    1
    71    18    19    1
    72    21    22    1
    73    75    74    1
    74    10     9    1
    75    22    24   ar
    76    27    26   ar
    77    65    66    1
    78     9     3   am
    79    19    20    2
    80    74    72   am
    81    24    26   ar
    82    73    72    2
    83    69    66    1
    84    68    67    2
    85    66    67    1
    86    72    71    1
    87     3     4    2
    88     3     2    1
    89     2     5    1
    90     2     1    1
    91     5     6    1
    92    71    70    1
    93     7     6    2
    94     6     8   am
    95    28    29    1
    96    29    32    1
    97    29    30    1
    98    32    33    1
    99    30    31    2
   100    33    34    1
   101    36    34   ar
   102    34    35   ar
