@<TRIPOS>MOLECULE
tmp/3bd3B00.pdb
 98 97 0 0 0
SMALL
GASTEIGER

@<TRIPOS>ATOM
      1  N        -62.2300   94.8510  151.0440 N.3    37  TYR37      -0.1227
      2  CA       -62.6400   94.0250  149.9160 C.3    37  TYR37       0.1736
      3  C        -62.6190   92.5450  150.2280 C.2    37  TYR37       0.2595
      4  O        -61.7630   91.8010  149.7520 O.2    37  TYR37      -0.2718
      5  CB       -61.7660   94.3610  148.7090 C.3    37  TYR37       0.0548
      6  CG       -62.0440   95.7630  148.2100 C.ar   37  TYR37      -0.0200
      7  CD1      -63.1250   96.0220  147.3640 C.ar   37  TYR37      -0.0009
      8  CD2      -61.2790   96.8410  148.6470 C.ar   37  TYR37      -0.0009
      9  CE1      -63.4380   97.3240  146.9720 C.ar   37  TYR37       0.0417
     10  CE2      -61.5800   98.1450  148.2610 C.ar   37  TYR37       0.0417
     11  CZ       -62.6600   98.3790  147.4270 C.ar   37  TYR37       0.1957
     12  OH       -62.9720   99.6650  147.0610 O.3    37  TYR37      -0.2866
     13  N        -63.5950   92.1400  151.0310 N.am   38  LEU38      -0.1966
     14  CA       -63.7530   90.7610  151.4540 C.3    38  LEU38       0.1728
     15  C        -65.2220   90.3960  151.2750 C.2    38  LEU38       0.2616
     16  O        -66.1220   91.1360  151.6950 O.2    38  LEU38      -0.2715
     17  CB       -63.3270   90.6140  152.9230 C.3    38  LEU38       0.0311
     18  CG       -63.1390   89.2210  153.5390 C.3    38  LEU38       0.0022
     19  CD1      -64.4790   88.6200  153.9440 C.3    38  LEU38       0.0001
     20  CD2      -62.4100   88.3230  152.5400 C.3    38  LEU38       0.0001
     21  N        -65.4560   89.2580  150.6310 N.am   39  ALA39      -0.1977
     22  CA       -66.8060   88.7850  150.3760 C.3    39  ALA39       0.1597
     23  C        -66.9770   87.3580  150.8700 C.2    39  ALA39       0.2287
     24  O        -66.0000   86.6330  151.0410 O.2    39  ALA39      -0.2864
     25  CB       -67.0960   88.8460  148.8880 C.3    39  ALA39       0.0319
     26  N        -69.2970   83.7810  150.1820 N.3    41  TYR41      -0.1241
     27  CA       -70.1240   83.0420  149.2390 C.3    41  TYR41       0.1605
     28  C        -70.6410   81.7660  149.8930 C.2    41  TYR41       0.2264
     29  O        -69.9750   81.1720  150.7430 O.2    41  TYR41      -0.2867
     30  CB       -69.3200   82.6380  148.0020 C.3    41  TYR41       0.0534
     31  CG       -68.9760   83.7640  147.0560 C.ar   41  TYR41      -0.0201
     32  CD1      -67.9710   84.6770  147.3570 C.ar   41  TYR41      -0.0009
     33  CD2      -69.6450   83.8920  145.8430 C.ar   41  TYR41      -0.0009
     34  CE1      -67.6340   85.6960  146.4590 C.ar   41  TYR41       0.0417
     35  CE2      -69.3300   84.9030  144.9470 C.ar   41  TYR41       0.0417
     36  CZ       -68.3220   85.8010  145.2570 C.ar   41  TYR41       0.1957
     37  OH       -68.0100   86.8020  144.3670 O.3    41  TYR41      -0.2866
     38  N        -73.2650   84.7310  146.1150 N.3    51  LEU51      -0.1245
     39  CA       -72.6490   85.8130  146.8670 C.3    51  LEU51       0.1561
     40  C        -73.5930   86.2290  147.9830 C.2    51  LEU51       0.2260
     41  O        -74.7500   86.5710  147.7330 O.2    51  LEU51      -0.2867
     42  CB       -72.3720   87.0030  145.9410 C.3    51  LEU51       0.0270
     43  CG       -71.8370   88.2660  146.6180 C.3    51  LEU51       0.0019
     44  CD1      -70.4790   87.9940  147.2560 C.3    51  LEU51       0.0001
     45  CD2      -71.7300   89.3690  145.5780 C.3    51  LEU51       0.0001
     46  N        -70.6010   91.4000  150.6900 N.3    54  TYR54      -0.1227
     47  CA       -69.4190   91.9930  150.0790 C.3    54  TYR54       0.1736
     48  C        -69.0020   93.2200  150.9010 C.2    54  TYR54       0.2595
     49  O        -69.7610   93.6870  151.7520 O.2    54  TYR54      -0.2718
     50  CB       -69.6780   92.3710  148.6150 C.3    54  TYR54       0.0548
     51  CG       -70.8460   93.3040  148.4210 C.ar   54  TYR54      -0.0200
     52  CD1      -72.1560   92.8150  148.3630 C.ar   54  TYR54      -0.0009
     53  CD2      -70.6460   94.6820  148.3200 C.ar   54  TYR54      -0.0009
     54  CE1      -73.2410   93.6830  148.2030 C.ar   54  TYR54       0.0417
     55  CE2      -71.7170   95.5470  148.1660 C.ar   54  TYR54       0.0417
     56  CZ       -73.0070   95.0500  148.1080 C.ar   54  TYR54       0.1957
     57  OH       -74.0540   95.9370  147.9560 O.3    54  TYR54      -0.2866
     58  N        -67.8060   93.7390  150.6390 N.am   55  TRP55      -0.1976
     59  CA       -67.2720   94.8800  151.3930 C.3    55  TRP55       0.1640
     60  C        -67.3330   94.5390  152.8780 C.2    55  TRP55       0.2290
     61  O        -67.6600   95.3790  153.7230 O.2    55  TRP55      -0.2864
     62  CB       -68.0560   96.1670  151.1060 C.3    55  TRP55       0.0576
     63  CG       -67.8890   96.6510  149.6980 C.ar   55  TRP55       0.0006
     64  CD1      -66.9440   96.2510  148.7980 C.ar   55  TRP55       0.0946
     65  CD2      -68.6850   97.6360  149.0340 C.ar   55  TRP55       0.0152
     66  NE1      -67.1060   96.9270  147.6080 N.ar   55  TRP55      -0.2442
     67  CE2      -68.1690   97.7830  147.7280 C.ar   55  TRP55       0.0810
     68  CE3      -69.7890   98.4100  149.4180 C.ar   55  TRP55       0.0012
     69  CZ2      -68.7160   98.6740  146.8020 C.ar   55  TRP55       0.0191
     70  CZ3      -70.3340   99.2970  148.4980 C.ar   55  TRP55       0.0001
     71  CH2      -69.7970   99.4190  147.2040 C.ar   55  TRP55       0.0015
     72  N        -63.6380   85.5250  149.9210 N.3    94  LYS94      -0.1245
     73  CA       -62.9040   85.9040  148.7210 C.3    94  LYS94       0.1561
     74  C        -62.4360   87.3510  148.8240 C.2    94  LYS94       0.2260
     75  O        -63.2220   88.2290  149.1660 O.2    94  LYS94      -0.2867
     76  CB       -63.8430   85.7460  147.5200 C.3    94  LYS94       0.0271
     77  CG       -63.2940   86.2190  146.1840 C.3    94  LYS94       0.0035
     78  CD       -64.3980   86.2430  145.1220 C.3    94  LYS94       0.0206
     79  CE       -63.8400   86.6800  143.7750 C.3    94  LYS94       0.1093
     80  NZ       -64.8710   86.6700  142.6940 N.3    94  LYS94      -0.1314
     81  N        -60.9770   90.7810  147.0530 N.3    96  SER96      -0.1217
     82  CA       -60.9950   91.4520  145.7580 C.3    96  SER96       0.1889
     83  C        -60.2470   92.7820  145.8470 C.2    96  SER96       0.2288
     84  O        -60.4990   93.7040  145.0690 O.2    96  SER96      -0.2866
     85  CB       -62.4380   91.6910  145.3050 C.3    96  SER96       0.2089
     86  OG       -63.1270   92.5220  146.2190 O.3    96  SER96      -0.2183
     87  N        -58.1430   87.8470  142.1610 N.3   101  TYR101     -0.1241
     88  CA       -58.8780   87.5440  143.3800 C.3   101  TYR101      0.1605
     89  C        -58.5660   86.1230  143.8490 C.2   101  TYR101      0.2264
     90  O        -58.3370   85.2320  143.0360 O.2   101  TYR101     -0.2867
     91  CB       -60.3850   87.7090  143.1250 C.3   101  TYR101      0.0534
     92  CG       -60.7850   89.0570  142.5460 C.ar  101  TYR101     -0.0201
     93  CD1      -59.9750   90.1830  142.7150 C.ar  101  TYR101     -0.0009
     94  CD2      -62.0060   89.2220  141.8750 C.ar  101  TYR101     -0.0009
     95  CE1      -60.3640   91.4360  142.2390 C.ar  101  TYR101      0.0417
     96  CE2      -62.4030   90.4790  141.3950 C.ar  101  TYR101      0.0417
     97  CZ       -61.5740   91.5810  141.5860 C.ar  101  TYR101      0.1957
     98  OH       -61.9640   92.8330  141.1490 O.3   101  TYR101     -0.2866
@<TRIPOS>BOND
     1    98    97    1
     2    96    97   ar
     3    96    94   ar
     4    97    95   ar
     5    94    92   ar
     6    87    88    1
     7    95    93   ar
     8    92    93   ar
     9    92    91    1
    10    80    79    1
    11    90    89    2
    12    91    88    1
    13    88    89    1
    14    79    78    1
    15    37    36    1
    16    35    36   ar
    17    35    33   ar
    18    84    83    2
    19    78    77    1
    20    36    34   ar
    21    85    82    1
    22    85    86    1
    23    45    43    1
    24    82    83    1
    25    82    81    1
    26    33    31   ar
    27    42    43    1
    28    42    39    1
    29    38    39    1
    30    77    76    1
    31    34    32   ar
    32    43    44    1
    33    69    71   ar
    34    69    67   ar
    35    39    40    1
    36     9     7   ar
    37     9    11   ar
    38    31    32   ar
    39    31    30    1
    40    12    11    1
    41    71    70   ar
    42     7     6   ar
    43    11    10   ar
    44    76    73    1
    45    66    67   ar
    46    66    64   ar
    47    67    65   ar
    48    41    40    2
    49    57    56    1
    50    30    27    1
    51    56    55   ar
    52    56    54   ar
    53    55    53   ar
    54    54    52   ar
    55     6     8   ar
    56     6     5    1
    57    10     8   ar
    58    53    51   ar
    59    52    51   ar
    60    51    50    1
    61    70    68   ar
    62    50    47    1
    63     5     2    1
    64    73    74    1
    65    73    72    1
    66    64    63   ar
    67    74    75    2
    68    25    22    1
    69    65    68   ar
    70    65    63   ar
    71    27    28    1
    72    27    26    1
    73    63    62    1
    74     4     3    2
    75    28    29    2
    76     2     3    1
    77     2     1    1
    78    47    46    1
    79    47    48    1
    80     3    13   am
    81    22    21    1
    82    22    23    1
    83    21    15   am
    84    58    48   am
    85    58    59    1
    86    23    24    2
    87    48    49    2
    88    13    14    1
    89    62    59    1
    90    15    14    1
    91    15    16    2
    92    59    60    1
    93    14    17    1
    94    20    18    1
    95    60    61    2
    96    17    18    1
    97    18    19    1
