@<TRIPOS>MOLECULE
tmp/3bd6A00.pdb
 111 105 0 0 0
SMALL
GASTEIGER

@<TRIPOS>ATOM
      1  N         20.3130    1.2310   49.2320 N.3    57  ILE57      -0.1245
      2  CA        20.9350    0.3000   50.1780 C.3    57  ILE57       0.1561
      3  C         21.3190   -1.0170   49.5010 C.2    57  ILE57       0.2260
      4  O         22.4110   -1.5400   49.7300 O.2    57  ILE57      -0.2867
      5  CB        20.0350    0.0450   51.4200 C.3    57  ILE57       0.0252
      6  CG1       19.9310    1.3190   52.2670 C.3    57  ILE57       0.0019
      7  CG2       20.5790   -1.1080   52.2670 C.3    57  ILE57       0.0019
      8  CD1       18.8110    1.2980   53.2930 C.3    57  ILE57       0.0001
      9  N         24.4350   -0.6400   46.9260 N.3    60  GLN60      -0.1231
     10  CA        25.7290   -0.5780   47.6110 C.3    60  GLN60       0.1698
     11  C         26.0770   -1.8890   48.3290 C.2    60  GLN60       0.2592
     12  O         27.2530   -2.2160   48.4950 O.2    60  GLN60      -0.2718
     13  CB        25.8090    0.6310   48.5570 C.3    60  GLN60       0.0381
     14  CG        25.4320    1.9980   47.9210 C.3    60  GLN60       0.0905
     15  CD        26.2810    2.4110   46.6970 C.2    60  GLN60       0.2608
     16  OE1       27.4770    2.1090   46.6080 O.2    60  GLN60      -0.2717
     17  NE2       25.6550    3.1320   45.7630 N.am   60  GLN60      -0.0878
     18  N         25.0510   -2.6360   48.7330 N.am   61  GLN61      -0.1979
     19  CA        25.2190   -3.9890   49.2670 C.3    61  GLN61       0.1601
     20  C         25.7430   -4.9150   48.1670 C.2    61  GLN61       0.2287
     21  O         26.6840   -5.6780   48.3810 O.2    61  GLN61      -0.2864
     22  CB        23.8780   -4.5110   49.7830 C.3    61  GLN61       0.0394
     23  CG        23.9000   -5.0150   51.2080 C.3    61  GLN61       0.0908
     24  CD        22.5510   -4.8540   51.9040 C.2    61  GLN61       0.2608
     25  OE1       22.4950   -4.5240   53.0890 O.2    61  GLN61      -0.2717
     26  NE2       21.4590   -5.0750   51.1650 N.am   61  GLN61      -0.0878
     27  N         29.4130   -4.3760   47.3280 N.3    64  TYR64      -0.1241
     28  CA        30.2780   -4.9130   48.3740 C.3    64  TYR64       0.1605
     29  C         30.4420   -6.4260   48.2370 C.2    64  TYR64       0.2264
     30  O         31.5250   -6.9600   48.4860 O.2    64  TYR64      -0.2867
     31  CB        29.7480   -4.5380   49.7600 C.3    64  TYR64       0.0534
     32  CG        30.5790   -5.0600   50.9140 C.ar   64  TYR64      -0.0201
     33  CD1       31.8450   -4.5340   51.1880 C.ar   64  TYR64      -0.0009
     34  CD2       30.0910   -6.0680   51.7430 C.ar   64  TYR64      -0.0009
     35  CE1       32.6110   -5.0130   52.2570 C.ar   64  TYR64       0.0417
     36  CE2       30.8420   -6.5530   52.8120 C.ar   64  TYR64       0.0417
     37  CZ        32.0990   -6.0230   53.0630 C.ar   64  TYR64       0.1957
     38  OH        32.8350   -6.5060   54.1230 O.3    64  TYR64      -0.2866
     39  N         35.6870   -0.4540   40.4360 N.3    70  ARG70      -0.1245
     40  CA        34.9830    0.7890   40.7320 C.3    70  ARG70       0.1563
     41  C         35.4920    1.9480   39.8970 C.2    70  ARG70       0.2260
     42  O         36.6940    2.0970   39.7120 O.2    70  ARG70      -0.2867
     43  CB        35.1090    1.1350   42.2130 C.3    70  ARG70       0.0307
     44  CG        33.9520    0.6340   43.0470 C.3    70  ARG70       0.0489
     45  CD        34.2970   -0.6020   43.8190 C.3    70  ARG70       0.2205
     46  NE        33.2420   -0.9030   44.7860 N.pl3  70  ARG70      -0.0865
     47  CZ        33.3030   -1.8710   45.6920 C.cat  70  ARG70       0.5346
     48  NH1       32.2890   -2.0580   46.5210 N.pl3  70  ARG70       0.1354
     49  NH2       34.3720   -2.6510   45.7730 N.pl3  70  ARG70       0.1354
     50  N         31.1210    6.2940   41.0930 N.3   144  TYR144     -0.1241
     51  CA        30.9440    7.3130   42.1190 C.3   144  TYR144      0.1605
     52  C         31.4040    8.6490   41.5710 C.2   144  TYR144      0.2264
     53  O         32.5110    8.7540   41.0370 O.2   144  TYR144     -0.2867
     54  CB        31.7810    7.0010   43.3590 C.3   144  TYR144      0.0534
     55  CG        31.5620    5.6400   43.9770 C.ar  144  TYR144     -0.0201
     56  CD1       30.9090    5.5070   45.2020 C.ar  144  TYR144     -0.0009
     57  CD2       32.0300    4.4860   43.3480 C.ar  144  TYR144     -0.0009
     58  CE1       30.7140    4.2530   45.7760 C.ar  144  TYR144      0.0417
     59  CE2       31.8360    3.2340   43.9050 C.ar  144  TYR144      0.0417
     60  CZ        31.1850    3.1240   45.1160 C.ar  144  TYR144      0.1957
     61  OH        31.0180    1.8710   45.6530 O.3   144  TYR144     -0.2866
     62  N         32.2020    9.3540   58.1090 N.3   185  PHE185     -0.1241
     63  CA        33.2930    9.1170   57.1620 C.3   185  PHE185      0.1605
     64  C         34.1310   10.3830   56.9290 C.2   185  PHE185      0.2264
     65  O         34.7830   10.5290   55.8880 O.2   185  PHE185     -0.2867
     66  CB        32.7680    8.5420   55.8360 C.3   185  PHE185      0.0534
     67  CG        31.8030    7.3920   56.0020 C.ar  185  PHE185     -0.0203
     68  CD1       32.1120    6.3090   56.8250 C.ar  185  PHE185     -0.0042
     69  CD2       30.5890    7.3890   55.3240 C.ar  185  PHE185     -0.0042
     70  CE1       31.2170    5.2450   56.9780 C.ar  185  PHE185     -0.0003
     71  CE2       29.6920    6.3290   55.4660 C.ar  185  PHE185     -0.0003
     72  CZ        30.0060    5.2570   56.2950 C.ar  185  PHE185     -0.0000
     73  N         29.2250   11.6830   45.9340 N.3   231  ARG231     -0.1245
     74  CA        29.7120   12.0810   47.2560 C.3   231  ARG231      0.1563
     75  C         30.4250   13.4240   47.1700 C.2   231  ARG231      0.2260
     76  O         31.4420   13.5460   46.4950 O.2   231  ARG231     -0.2867
     77  CB        30.6400   11.0060   47.8390 C.3   231  ARG231      0.0307
     78  CG        31.3070   11.4070   49.1570 C.3   231  ARG231      0.0489
     79  CD        31.8750   10.2040   49.8920 C.3   231  ARG231      0.2205
     80  NE        30.8310    9.4220   50.5520 N.pl3 231  ARG231     -0.0865
     81  CZ        31.0520    8.3400   51.2930 C.cat 231  ARG231      0.5346
     82  NH1       30.0270    7.7050   51.8500 N.pl3 231  ARG231      0.1354
     83  NH2       32.2900    7.8880   51.4810 N.pl3 231  ARG231      0.1354
     84  N         40.6540    3.4630   51.3190 N.3   292  ARG292     -0.1231
     85  CA        39.9050    2.8120   52.3970 C.3   292  ARG292      0.1694
     86  C         38.9850    1.7290   51.8410 C.2   292  ARG292      0.2591
     87  O         38.9830    0.6020   52.3360 O.2   292  ARG292     -0.2718
     88  CB        39.0880    3.8360   53.1930 C.3   292  ARG292      0.0321
     89  CG        38.2990    3.2430   54.3690 C.3   292  ARG292      0.0489
     90  CD        37.1920    4.1800   54.8610 C.3   292  ARG292      0.2205
     91  NE        36.3880    4.7230   53.7610 N.pl3 292  ARG292     -0.0865
     92  CZ        35.4420    4.0540   53.0980 C.cat 292  ARG292      0.5346
     93  NH1       34.7870    4.6530   52.1140 N.pl3 292  ARG292      0.1354
     94  NH2       35.1470    2.7920   53.4040 N.pl3 292  ARG292      0.1354
     95  N         38.2170    2.0830   50.8080 N.am  293  ARG293     -0.1980
     96  CA        37.2680    1.1700   50.1780 C.3   293  ARG293      0.1597
     97  C         37.9830   -0.0090   49.5180 C.2   293  ARG293      0.2287
     98  O         37.4760   -1.1310   49.5410 O.2   293  ARG293     -0.2864
     99  CB        36.3860    1.9140   49.1660 C.3   293  ARG293      0.0334
    100  CG        35.0980    1.1820   48.7990 C.3   293  ARG293      0.0492
    101  CD        34.1860    2.0120   47.8920 C.3   293  ARG293      0.2205
    102  NE        33.4740    3.0680   48.6160 N.pl3 293  ARG293     -0.0865
    103  CZ        33.7100    4.3750   48.4890 C.cat 293  ARG293      0.5346
    104  NH1       33.0020    5.2420   49.1990 N.pl3 293  ARG293      0.1354
    105  NH2       34.6430    4.8240   47.6530 N.pl3 293  ARG293      0.1354
    106  N         39.2670   -2.3880   52.3560 N.3   296  SER296     -0.1217
    107  CA        38.1440   -3.0230   53.0460 C.3   296  SER296      0.1889
    108  C         37.2130   -3.7300   52.0590 C.2   296  SER296      0.2288
    109  O         36.0020   -3.4800   52.0390 O.2   296  SER296     -0.2866
    110  CB        37.3680   -1.9820   53.8610 C.3   296  SER296      0.2089
    111  OG        38.2290   -1.2600   54.7270 O.3   296  SER296     -0.2183
@<TRIPOS>BOND
     1    42    41    2
     2    41    40    1
     3    39    40    1
     4    40    43    1
     5    53    52    2
     6    50    51    1
     7    52    51    1
     8    51    54    1
     9    43    44    1
    10    44    45    1
    11    57    59   ar
    12    57    55   ar
    13    54    55    1
    14    45    46    1
    15    59    60   ar
    16    55    56   ar
    17    46    47    2
    18    60    61    1
    19    60    58   ar
    20    56    58   ar
    21    47    49    1
    22    47    48    1
    23    17    15   am
    24    73    74    1
    25    76    75    2
    26    16    15    2
    27    15    14    1
    28     9    10    1
    29    75    74    1
    30    74    77    1
    31    27    28    1
    32    10    11    1
    33    10    13    1
    34   105   103    1
    35    77    78    1
    36   101   102    1
    37   101   100    1
    38    14    13    1
    39    20    21    2
    40    20    19    1
    41    29    28    1
    42    29    30    2
    43    11    12    2
    44    11    18   am
    45    28    31    1
    46   103   102    2
    47   103   104    1
    48    18    19    1
    49   100    99    1
    50    78    79    1
    51    99    96    1
    52     1     2    1
    53    19    22    1
    54     3     4    2
    55     3     2    1
    56    97    98    2
    57    97    96    1
    58    31    32    1
    59    22    23    1
    60    79    80    1
    61     2     5    1
    62    96    95    1
    63    80    81    2
    64    95    86   am
    65    32    33   ar
    66    32    34   ar
    67    26    24   am
    68    33    35   ar
    69    23    24    1
    70    81    83    1
    71    81    82    1
    72    84    85    1
    73     5     7    1
    74     5     6    1
    75    34    36   ar
    76    86    87    2
    77    86    85    1
    78    24    25    2
    79   109   108    2
    80   108   107    1
    81    93    92    1
    82    35    37   ar
    83     6     8    1
    84   106   107    1
    85    85    88    1
    86    36    37   ar
    87   107   110    1
    88    37    38    1
    89    92    94    1
    90    92    91    2
    91    88    89    1
    92    91    90    1
    93   110   111    1
    94    89    90    1
    95    69    71   ar
    96    69    67   ar
    97    71    72   ar
    98    66    67    1
    99    66    63    1
   100    65    64    2
   101    67    68   ar
   102    72    70   ar
   103    68    70   ar
   104    64    63    1
   105    63    62    1
