@<TRIPOS>MOLECULE
tmp/3bd7A01.pdb
 103 100 0 0 0
SMALL
GASTEIGER

@<TRIPOS>ATOM
      1  N         34.0880   30.9450   36.7080 N.3   265  ASN265     -0.1225
      2  CA        34.7650   31.0550   35.4230 C.3   265  ASN265      0.1785
      3  C         34.4720   29.8800   34.5030 C.2   265  ASN265      0.2597
      4  O         34.3460   28.7390   34.9480 O.2   265  ASN265     -0.2718
      5  CB        36.2720   31.1810   35.6230 C.3   265  ASN265      0.1169
      6  CG        36.6380   32.3680   36.4740 C.2   265  ASN265      0.2627
      7  OD1       36.2910   33.5030   36.1510 O.2   265  ASN265     -0.2716
      8  ND2       37.3330   32.1160   37.5750 N.am  265  ASN265     -0.0877
      9  N         34.3640   30.1780   33.2150 N.am  266  ASP266     -0.1974
     10  CA        34.0890   29.1770   32.1900 C.3   266  ASP266      0.1709
     11  C         35.1710   29.3810   31.1330 C.2   266  ASP266      0.2293
     12  O         35.3080   30.4760   30.5980 O.2   266  ASP266     -0.2864
     13  CB        32.7010   29.4340   31.5780 C.3   266  ASP266      0.1436
     14  CG        32.2810   28.3680   30.5630 C.2   266  ASP266      0.3671
     15  OD1       31.6850   27.3520   30.9770 O.co2 266  ASP266     -0.2456
     16  OD2       32.5360   28.5490   29.3470 O.co2 266  ASP266     -0.2456
     17  N         38.3860   29.7060   31.3850 N.3   268  PHE268     -0.1241
     18  CA        39.3210   30.7460   31.7830 C.3   268  PHE268      0.1605
     19  C         39.9690   30.3620   33.0990 C.2   268  PHE268      0.2264
     20  O         39.2810   30.1070   34.0900 O.2   268  PHE268     -0.2867
     21  CB        38.6170   32.0880   31.9550 C.3   268  PHE268      0.0534
     22  CG        39.5580   33.2140   32.2640 C.ar  268  PHE268     -0.0203
     23  CD1       40.3530   33.7630   31.2660 C.ar  268  PHE268     -0.0042
     24  CD2       39.6840   33.6930   33.5630 C.ar  268  PHE268     -0.0042
     25  CE1       41.2680   34.7770   31.5580 C.ar  268  PHE268     -0.0003
     26  CE2       40.5970   34.7080   33.8660 C.ar  268  PHE268     -0.0003
     27  CZ        41.3870   35.2470   32.8630 C.ar  268  PHE268     -0.0000
     28  N         41.9740   31.0590   36.4710 N.3   270  GLU270     -0.1245
     29  CA        42.2520   32.0920   37.4620 C.3   270  GLU270      0.1567
     30  C         43.0760   31.4020   38.5470 C.2   270  GLU270      0.2260
     31  O         42.5560   30.5810   39.3040 O.2   270  GLU270     -0.2867
     32  CB        40.9490   32.6380   38.0530 C.3   270  GLU270      0.0388
     33  CG        41.1530   33.8330   38.9650 C.3   270  GLU270      0.1160
     34  CD        39.8510   34.5090   39.3540 C.2   270  GLU270      0.3649
     35  OE1       39.9120   35.5590   40.0250 O.co2 270  GLU270     -0.2457
     36  OE2       38.7700   33.9940   38.9950 O.co2 270  GLU270     -0.2457
     37  N         44.2620   30.4420   27.3960 N.3   356  GLU356     -0.1245
     38  CA        43.8740   31.0790   28.6490 C.3   356  GLU356      0.1567
     39  C         43.0420   30.1810   29.5660 C.2   356  GLU356      0.2260
     40  O         42.7860   30.5410   30.7120 O.2   356  GLU356     -0.2867
     41  CB        43.0880   32.3660   28.3770 C.3   356  GLU356      0.0388
     42  CG        41.7400   32.1400   27.7070 C.3   356  GLU356      0.1160
     43  CD        41.7810   32.3340   26.2010 C.2   356  GLU356      0.3649
     44  OE1       42.7390   31.8530   25.5540 O.co2 356  GLU356     -0.2457
     45  OE2       40.8430   32.9610   25.6620 O.co2 356  GLU356     -0.2457
     46  N         30.8230   34.2760   25.8570 N.3   545  HIS545     -0.1226
     47  CA        32.2610   34.2300   25.6360 C.3   545  HIS545      0.1752
     48  C         32.5600   34.7000   24.2230 C.2   545  HIS545      0.2595
     49  O         31.7580   34.4960   23.3130 O.2   545  HIS545     -0.2718
     50  CB        32.7920   32.8070   25.8430 C.3   545  HIS545      0.0759
     51  CG        34.2700   32.7450   26.0790 C.ar  545  HIS545      0.0818
     52  ND1       35.1950   33.1520   25.1400 N.ar  545  HIS545     -0.2268
     53  CD2       34.9810   32.3440   27.1600 C.ar  545  HIS545      0.1154
     54  CE1       36.4130   33.0060   25.6320 C.ar  545  HIS545      0.1986
     55  NE2       36.3110   32.5170   26.8560 N.ar  545  HIS545     -0.2212
     56  N         33.7070   35.3430   24.0380 N.am  546  GLU546     -0.1979
     57  CA        34.0650   35.8260   22.7140 C.3   546  GLU546      0.1602
     58  C         34.1840   34.7070   21.6880 C.2   546  GLU546      0.2287
     59  O         33.8120   34.8920   20.5310 O.2   546  GLU546     -0.2864
     60  CB        35.3750   36.6180   22.7700 C.3   546  GLU546      0.0415
     61  CG        35.2400   37.9380   23.5000 C.3   546  GLU546      0.1163
     62  CD        36.5800   38.5650   23.8180 C.2   546  GLU546      0.3649
     63  OE1       37.1850   39.1910   22.9200 O.co2 546  GLU546     -0.2457
     64  OE2       37.0270   38.4140   24.9690 O.co2 546  GLU546     -0.2457
     65  N         31.1800   35.6050   33.2830 N.3   584  ALA584     -0.1245
     66  CA        31.9530   35.5140   34.5160 C.3   584  ALA584      0.1562
     67  C         32.0340   36.9410   35.0590 C.2   584  ALA584      0.2260
     68  O         32.2070   37.8930   34.2920 O.2   584  ALA584     -0.2867
     69  CB        33.3450   34.9670   34.2290 C.3   584  ALA584      0.0290
     70  N         34.2640   38.8480   36.3740 N.3   586  GLY586     -0.1210
     71  CA        35.3700   39.7130   35.9860 C.3   586  GLY586      0.1956
     72  C         35.6800   39.7700   34.4990 C.2   586  GLY586      0.2612
     73  O         36.7000   40.3340   34.0900 O.2   586  GLY586     -0.2717
     74  N         34.7990   39.1970   33.6850 N.am  587  TYR587     -0.1962
     75  CA        34.9870   39.1720   32.2360 C.3   587  TYR587      0.1771
     76  C         34.3110   40.4030   31.6440 C.2   587  TYR587      0.2620
     77  O         33.1380   40.3620   31.2590 O.2   587  TYR587     -0.2715
     78  CB        34.3630   37.8900   31.6700 C.3   587  TYR587      0.0574
     79  CG        34.7510   37.5360   30.2480 C.ar  587  TYR587     -0.0198
     80  CD1       34.3430   36.3240   29.6890 C.ar  587  TYR587     -0.0009
     81  CD2       35.5050   38.4070   29.4550 C.ar  587  TYR587     -0.0009
     82  CE1       34.6690   35.9830   28.3860 C.ar  587  TYR587      0.0417
     83  CE2       35.8400   38.0730   28.1360 C.ar  587  TYR587      0.0417
     84  CZ        35.4120   36.8550   27.6120 C.ar  587  TYR587      0.1957
     85  OH        35.7090   36.5020   26.3120 O.3   587  TYR587     -0.2866
     86  N         35.0620   41.4970   31.5680 N.am  588  HIS588     -0.1959
     87  CA        34.5340   42.7570   31.0610 C.3   588  HIS588      0.1787
     88  C         33.8920   42.7040   29.6760 C.2   588  HIS588      0.2620
     89  O         32.7600   43.1430   29.5090 O.2   588  HIS588     -0.2715
     90  CB        35.6310   43.8290   31.0840 C.3   588  HIS588      0.0785
     91  CG        35.1810   45.1620   30.5740 C.ar  588  HIS588      0.0821
     92  ND1       35.4180   45.5840   29.2830 N.ar  588  HIS588     -0.2267
     93  CD2       34.4810   46.1560   31.1720 C.ar  588  HIS588      0.1154
     94  CE1       34.8830   46.7800   29.1070 C.ar  588  HIS588      0.1986
     95  NE2       34.3070   47.1490   30.2390 N.ar  588  HIS588     -0.2212
     96  N         34.5950   42.1710   28.6840 N.am  589  MET589     -0.1977
     97  CA        34.0310   42.1130   27.3350 C.3   589  MET589      0.1605
     98  C         32.7150   41.3330   27.3210 C.2   589  MET589      0.2287
     99  O         31.7790   41.6940   26.6070 O.2   589  MET589     -0.2864
    100  CB        35.0260   41.4700   26.3630 C.3   589  MET589      0.0413
    101  CG        34.6280   41.5830   24.8980 C.3   589  MET589      0.0598
    102  SD        34.3760   43.3050   24.3680 S.3   589  MET589     -0.1393
    103  CE        36.0760   43.8980   24.3240 C.3   589  MET589      0.0692
@<TRIPOS>BOND
     1    59    58    2
     2    58    57    1
     3    57    60    1
     4    57    56    1
     5    60    61    1
     6    63    62   ar
     7    49    48    2
     8    61    62    1
     9    62    64   ar
    10    56    48   am
    11    48    47    1
    12   103   102    1
    13   102   101    1
    14   101   100    1
    15    52    54   ar
    16    52    51   ar
    17    44    43   ar
    18    54    55   ar
    19    47    50    1
    20    47    46    1
    21    45    43   ar
    22    50    51    1
    23    51    53   ar
    24    43    42    1
    25    85    84    1
    26   100    97    1
    27    99    98    2
    28    55    53   ar
    29    98    97    1
    30    97    96    1
    31    37    38    1
    32    84    83   ar
    33    84    82   ar
    34    42    41    1
    35    83    81   ar
    36    41    38    1
    37    82    80   ar
    38    38    39    1
    39    96    88   am
    40    94    92   ar
    41    94    95   ar
    42    92    91   ar
    43    16    14   ar
    44    81    79   ar
    45    89    88    2
    46    39    40    2
    47    88    87    1
    48    80    79   ar
    49    95    93   ar
    50    79    78    1
    51    14    15   ar
    52    14    13    1
    53    91    90    1
    54    91    93   ar
    55    12    11    2
    56    87    90    1
    57    87    86    1
    58    11    10    1
    59    77    76    2
    60    23    25   ar
    61    23    22   ar
    62    17    18    1
    63    25    27   ar
    64    86    76   am
    65    13    10    1
    66    76    75    1
    67    78    75    1
    68    18    21    1
    69    18    19    1
    70    21    22    1
    71    10     9    1
    72    75    74    1
    73    22    24   ar
    74    27    26   ar
    75    19    20    2
    76     9     3   am
    77    65    66    1
    78    24    26   ar
    79    74    72   am
    80    73    72    2
    81    69    66    1
    82    68    67    2
    83    72    71    1
    84     3     4    2
    85     3     2    1
    86    66    67    1
    87     2     5    1
    88     2     1    1
    89     5     6    1
    90    71    70    1
    91     7     6    2
    92    28    29    1
    93     6     8   am
    94    29    32    1
    95    29    30    1
    96    32    33    1
    97    30    31    2
    98    33    34    1
    99    36    34   ar
   100    34    35   ar
