@<TRIPOS>MOLECULE
tmp/3bd8A01.pdb
 190 182 0 0 0
SMALL
GASTEIGER

@<TRIPOS>ATOM
      1  N         32.9920   20.1810   39.3270 N.3    77  GLU77      -0.1245
      2  CA        31.6700   20.6550   38.9590 C.3    77  GLU77       0.1567
      3  C         30.6930   19.5350   38.6170 C.2    77  GLU77       0.2260
      4  O         31.0420   18.5690   37.9370 O.2    77  GLU77      -0.2867
      5  CB        31.7590   21.6100   37.7580 C.3    77  GLU77       0.0388
      6  CG        32.6720   22.8210   37.9610 C.3    77  GLU77       0.1160
      7  CD        32.6020   23.8070   36.8090 C.2    77  GLU77       0.3649
      8  OE1       33.4800   24.6910   36.7280 O.co2  77  GLU77      -0.2457
      9  OE2       31.6650   23.7090   35.9860 O.co2  77  GLU77      -0.2457
     10  N         29.4160   25.5170   35.9500 N.3   122  ASN122     -0.1225
     11  CA        29.3880   26.7360   35.1490 C.3   122  ASN122      0.1785
     12  C         28.6820   26.5600   33.8110 C.2   122  ASN122      0.2598
     13  O         27.9530   27.4450   33.3610 O.2   122  ASN122     -0.2718
     14  CB        30.8130   27.2210   34.8900 C.3   122  ASN122      0.1169
     15  CG        31.4020   27.9510   36.0790 C.2   122  ASN122      0.2627
     16  OD1       31.0300   29.0890   36.3610 O.2   122  ASN122     -0.2716
     17  ND2       32.3190   27.2960   36.7890 N.am  122  ASN122     -0.0877
     18  N         28.9100   25.4200   33.1720 N.am  123  GLY123     -0.1942
     19  CA        28.3030   25.1870   31.8780 C.3   123  GLY123      0.2014
     20  C         28.4970   23.7790   31.3680 C.2   123  GLY123      0.2639
     21  O         28.1820   22.8150   32.0690 O.2   123  GLY123     -0.2714
     22  N         29.0380   23.6650   30.1550 N.am  124  GLY124     -0.1939
     23  CA        29.2330   22.3650   29.5280 C.3   124  GLY124      0.2014
     24  C         29.9950   21.2950   30.2860 C.2   124  GLY124      0.2638
     25  O         29.5630   20.1400   30.3450 O.2   124  GLY124     -0.2714
     26  N         31.1380   21.6650   30.8550 N.am  125  LEU125     -0.1977
     27  CA        31.9580   20.7210   31.6030 C.3   125  LEU125      0.1596
     28  C         31.1840   20.1550   32.7980 C.2   125  LEU125      0.2287
     29  O         31.1960   18.9490   33.0520 O.2   125  LEU125     -0.2864
     30  CB        33.2410   21.4180   32.0730 C.3   125  LEU125      0.0297
     31  CG        34.2370   20.6280   32.9240 C.3   125  LEU125      0.0022
     32  CD1       34.5130   19.2970   32.2680 C.3   125  LEU125      0.0001
     33  CD2       35.5350   21.4110   33.0600 C.3   125  LEU125      0.0001
     34  N         28.1670   17.9400   31.6350 N.3   128  LEU128     -0.1245
     35  CA        28.6350   16.6590   31.1040 C.3   128  LEU128      0.1561
     36  C         28.7820   15.6600   32.2490 C.2   128  LEU128      0.2260
     37  O         28.4220   14.4920   32.1240 O.2   128  LEU128     -0.2867
     38  CB        29.9850   16.8320   30.3880 C.3   128  LEU128      0.0270
     39  CG        30.5090   15.5930   29.6410 C.3   128  LEU128      0.0019
     40  CD1       29.6300   15.3190   28.4200 C.3   128  LEU128      0.0001
     41  CD2       31.9560   15.7990   29.2120 C.3   128  LEU128      0.0001
     42  N         34.0410   30.9230   36.5950 N.3   265  ASN265     -0.1225
     43  CA        34.6910   31.0730   35.2990 C.3   265  ASN265      0.1785
     44  C         34.4010   29.9400   34.3210 C.2   265  ASN265      0.2597
     45  O         34.4490   28.7630   34.6790 O.2   265  ASN265     -0.2718
     46  CB        36.2020   31.2090   35.4860 C.3   265  ASN265      0.1169
     47  CG        36.5670   32.4190   36.3120 C.2   265  ASN265      0.2627
     48  OD1       36.1560   33.5360   36.0010 O.2   265  ASN265     -0.2716
     49  ND2       37.3390   32.2090   37.3710 N.am  265  ASN265     -0.0877
     50  N         34.0930   30.3090   33.0840 N.am  266  ASP266     -0.1960
     51  CA        33.8250   29.3360   32.0350 C.3   266  ASP266      0.1840
     52  C         34.9840   29.4530   31.0520 C.2   266  ASP266      0.2622
     53  O         35.2450   30.5310   30.5210 O.2   266  ASP266     -0.2715
     54  CB        32.5110   29.6600   31.3160 C.3   266  ASP266      0.1450
     55  CG        32.1080   28.5780   30.3110 C.2   266  ASP266      0.3671
     56  OD1       31.5380   27.5440   30.7360 O.co2 266  ASP266     -0.2456
     57  OD2       32.3690   28.7580   29.0980 O.co2 266  ASP266     -0.2456
     58  N         35.6920   28.3530   30.8240 N.am  267  ASN267     -0.1958
     59  CA        36.8110   28.3680   29.8910 C.3   267  ASN267      0.1819
     60  C         37.8110   29.4830   30.1760 C.2   267  ASN267      0.2621
     61  O         38.2050   30.2160   29.2710 O.2   267  ASN267     -0.2715
     62  CB        36.2870   28.5030   28.4590 C.3   267  ASN267      0.1195
     63  CG        35.9510   27.1660   27.8380 C.2   267  ASN267      0.2630
     64  OD1       36.8350   26.4550   27.3590 O.2   267  ASN267     -0.2716
     65  ND2       34.6720   26.8050   27.8610 N.am  267  ASN267     -0.0877
     66  N         38.2190   29.6080   31.4350 N.am  268  PHE268     -0.1974
     67  CA        39.1880   30.6290   31.8250 C.3   268  PHE268      0.1639
     68  C         39.8510   30.2450   33.1430 C.2   268  PHE268      0.2290
     69  O         39.1700   29.8670   34.1010 O.2   268  PHE268     -0.2864
     70  CB        38.5040   31.9860   31.9800 C.3   268  PHE268      0.0560
     71  CG        39.4590   33.1150   32.2300 C.ar  268  PHE268     -0.0200
     72  CD1       40.2960   33.5700   31.2170 C.ar  268  PHE268     -0.0042
     73  CD2       39.5360   33.7150   33.4830 C.ar  268  PHE268     -0.0042
     74  CE1       41.1990   34.6070   31.4460 C.ar  268  PHE268     -0.0003
     75  CE2       40.4360   34.7530   33.7250 C.ar  268  PHE268     -0.0003
     76  CZ        41.2690   35.2000   32.7040 C.ar  268  PHE268     -0.0000
     77  N         39.0790   17.1400   33.2020 N.3   313  ASP313     -0.1239
     78  CA        39.9960   18.2420   32.9200 C.3   313  ASP313      0.1674
     79  C         41.1490   18.1450   33.9210 C.2   313  ASP313      0.2266
     80  O         41.3190   17.1120   34.5680 O.2   313  ASP313     -0.2867
     81  CB        39.3160   19.6090   33.0350 C.3   313  ASP313      0.1410
     82  CG        39.9710   20.6530   32.1330 C.2   313  ASP313      0.3668
     83  OD1       39.4860   20.8650   31.0040 O.co2 313  ASP313     -0.2456
     84  OD2       40.9890   21.2440   32.5350 O.co2 313  ASP313     -0.2456
     85  N         41.4940   20.0950   36.6090 N.3   315  HIS315     -0.1241
     86  CA        41.0990   20.5930   37.9190 C.3   315  HIS315      0.1621
     87  C         41.4810   19.6470   39.0610 C.2   315  HIS315      0.2264
     88  O         41.8870   20.1030   40.1240 O.2   315  HIS315     -0.2867
     89  CB        39.6010   20.9120   37.9220 C.3   315  HIS315      0.0745
     90  CG        39.1880   21.8280   36.8090 C.ar  315  HIS315      0.0817
     91  ND1       37.8740   22.0050   36.4360 N.ar  315  HIS315     -0.2268
     92  CD2       39.9220   22.6050   35.9750 C.ar  315  HIS315      0.1154
     93  CE1       37.8150   22.8490   35.4190 C.ar  315  HIS315      0.1986
     94  NE2       39.0450   23.2280   35.1200 N.ar  315  HIS315     -0.2212
     95  N         39.1630   19.3180   27.7390 N.3   351  HIS351     -0.1226
     96  CA        37.9360   19.9580   27.2790 C.3   351  HIS351      0.1752
     97  C         38.1180   21.2620   26.5000 C.2   351  HIS351      0.2596
     98  O         37.1290   21.8830   26.1140 O.2   351  HIS351     -0.2718
     99  CB        37.0240   20.2460   28.4800 C.3   351  HIS351      0.0759
    100  CG        36.5830   19.0290   29.2290 C.ar  351  HIS351      0.0818
    101  ND1       35.4240   18.3470   28.9270 N.ar  351  HIS351     -0.2268
    102  CD2       37.1390   18.3800   30.2800 C.ar  351  HIS351      0.1154
    103  CE1       35.2840   17.3320   29.7610 C.ar  351  HIS351      0.1986
    104  NE2       36.3110   17.3300   30.5930 N.ar  351  HIS351     -0.2212
    105  N         39.3540   21.6960   26.2770 N.am  352  THR352     -0.1953
    106  CA        39.5630   22.9410   25.5400 C.3   352  THR352      0.1897
    107  C         41.0000   23.1300   25.0790 C.2   352  THR352      0.2313
    108  O         41.9160   22.5220   25.6280 O.2   352  THR352     -0.2863
    109  CB        39.1680   24.1720   26.3950 C.3   352  THR352      0.1794
    110  OG1       39.3120   25.3710   25.6160 O.3   352  THR352     -0.2208
    111  CG2       40.0530   24.2680   27.6260 C.3   352  THR352      0.0378
    112  N         42.6390   29.1310   29.1830 N.3   357  ALA357     -0.1245
    113  CA        41.8580   28.2010   29.9930 C.3   357  ALA357      0.1562
    114  C         42.7050   27.1090   30.6460 C.2   357  ALA357      0.2260
    115  O         42.2480   26.4360   31.5700 O.2   357  ALA357     -0.2867
    116  CB        40.7670   27.5670   29.1410 C.3   357  ALA357      0.0290
    117  N         37.1040   15.5710   23.3260 N.3   429  VAL429     -0.1245
    118  CA        35.6590   15.3800   23.4490 C.3   429  VAL429      0.1561
    119  C         34.8110   15.4150   22.1760 C.2   429  VAL429      0.2260
    120  O         33.5800   15.4360   22.2430 O.2   429  VAL429     -0.2867
    121  CB        35.1010   16.3790   24.4770 C.3   429  VAL429      0.0252
    122  CG1       35.6110   16.0120   25.8720 C.3   429  VAL429      0.0019
    123  CG2       35.5510   17.7920   24.1260 C.3   429  VAL429      0.0019
    124  N         31.3890   13.6600   23.0640 N.3   458  ASN458     -0.1240
    125  CA        30.4090   13.9360   24.1110 C.3   458  ASN458      0.1653
    126  C         28.9970   13.4930   23.7440 C.2   458  ASN458      0.2266
    127  O         28.7120   13.1280   22.6010 O.2   458  ASN458     -0.2867
    128  CB        30.3910   15.4420   24.4360 C.3   458  ASN458      0.1155
    129  CG        31.5830   15.8830   25.2880 C.2   458  ASN458      0.2627
    130  OD1       31.8290   17.0860   25.4690 O.2   458  ASN458     -0.2716
    131  ND2       32.3190   14.9140   25.8230 N.am  458  ASN458     -0.0877
    132  N         34.6490   33.6400   22.0990 N.3   547  TYR547     -0.1227
    133  CA        34.8040   32.5760   21.1150 C.3   547  TYR547      0.1736
    134  C         33.4760   31.9820   20.6430 C.2   547  TYR547      0.2595
    135  O         33.3950   31.4590   19.5320 O.2   547  TYR547     -0.2718
    136  CB        35.7650   31.4850   21.6380 C.3   547  TYR547      0.0548
    137  CG        35.1560   30.3550   22.4380 C.ar  547  TYR547     -0.0200
    138  CD1       34.5320   29.2810   21.8020 C.ar  547  TYR547     -0.0009
    139  CD2       35.2410   30.3370   23.8320 C.ar  547  TYR547     -0.0009
    140  CE1       34.0140   28.2170   22.5340 C.ar  547  TYR547      0.0417
    141  CE2       34.7250   29.2800   24.5720 C.ar  547  TYR547      0.0417
    142  CZ        34.1160   28.2250   23.9200 C.ar  547  TYR547      0.1957
    143  OH        33.6070   27.1760   24.6530 O.3   547  TYR547     -0.2866
    144  N         32.4350   32.0820   21.4680 N.am  548  LYS548     -0.1980
    145  CA        31.1160   31.5610   21.1050 C.3   548  LYS548      0.1596
    146  C         30.4210   32.5200   20.1290 C.2   548  LYS548      0.2287
    147  O         29.3850   32.2020   19.5380 O.2   548  LYS548     -0.2864
    148  CB        30.2690   31.3450   22.3660 C.3   548  LYS548      0.0298
    149  CG        30.8310   30.2520   23.2880 C.3   548  LYS548      0.0038
    150  CD        30.1090   30.1940   24.6270 C.3   548  LYS548      0.0206
    151  CE        30.7140   29.1410   25.5560 C.3   548  LYS548      0.1093
    152  NZ        30.4870   27.7480   25.0580 N.3   548  LYS548     -0.1314
    153  N         37.5790   26.3210   18.0550 N.3   645  THR645     -0.1203
    154  CA        37.5270   26.8070   19.4320 C.3   645  THR645      0.1994
    155  C         36.5830   26.0720   20.3890 C.2   645  THR645      0.2618
    156  O         36.8990   25.9240   21.5700 O.2   645  THR645     -0.2717
    157  CB        37.2020   28.3110   19.4460 C.3   645  THR645      0.1784
    158  OG1       35.8740   28.5240   18.9550 O.3   645  THR645     -0.2211
    159  CG2       38.1850   29.0630   18.5440 C.3   645  THR645      0.0376
    160  N         35.4320   25.6140   19.8980 N.am  646  GLU646     -0.1965
    161  CA        34.4840   24.8910   20.7540 C.3   646  GLU646      0.1733
    162  C         34.8670   23.4120   20.7040 C.2   646  GLU646      0.2616
    163  O         34.5650   22.7300   19.7280 O.2   646  GLU646     -0.2715
    164  CB        33.0510   25.0780   20.2380 C.3   646  GLU646      0.0429
    165  CG        31.9530   24.5890   21.1850 C.3   646  GLU646      0.1163
    166  CD        31.8270   25.4530   22.4290 C.2   646  GLU646      0.3649
    167  OE1       32.5130   25.1710   23.4380 O.co2 646  GLU646     -0.2457
    168  OE2       31.0470   26.4280   22.3920 O.co2 646  GLU646     -0.2457
    169  N         35.5340   22.9240   21.7520 N.am  647  ALA647     -0.1963
    170  CA        35.9910   21.5340   21.8040 C.3   647  ALA647      0.1728
    171  C         34.9500   20.5480   21.2830 C.2   647  ALA647      0.2617
    172  O         35.2420   19.7090   20.4240 O.2   647  ALA647     -0.2715
    173  CB        36.4010   21.1610   23.2290 C.3   647  ALA647      0.0334
    174  N         33.7370   20.6500   21.8070 N.am  648  SER648     -0.1936
    175  CA        32.6660   19.7710   21.3840 C.3   648  SER648      0.2055
    176  C         31.3470   20.5050   21.3310 C.2   648  SER648      0.2644
    177  O         30.7560   20.6800   20.2600 O.2   648  SER648     -0.2714
    178  CB        32.5320   18.5880   22.3460 C.3   648  SER648      0.2130
    179  OG        31.3310   17.8670   22.0970 O.3   648  SER648     -0.2179
    180  N         30.9100   20.9530   22.5040 N.am  649  GLY649     -0.1939
    181  CA        29.6310   21.6150   22.6310 C.3   649  GLY649      0.2014
    182  C         28.6510   20.5020   22.9720 C.2   649  GLY649      0.2639
    183  O         28.8500   19.3680   22.5400 O.2   649  GLY649     -0.2714
    184  N         27.6250   20.8000   23.7640 N.am  650  THR650     -0.1950
    185  CA        26.6120   19.8000   24.1160 C.3   650  THR650      0.1897
    186  C         25.2110   20.3940   23.9650 C.2   650  THR650      0.2313
    187  O         24.2350   19.6730   23.7360 O.2   650  THR650     -0.2863
    188  CB        26.7950   19.2670   25.5500 C.3   650  THR650      0.1794
    189  OG1       26.8630   20.3630   26.4660 O.3   650  THR650     -0.2208
    190  CG2       28.0660   18.4270   25.6460 C.3   650  THR650      0.0378
@<TRIPOS>BOND
     1   153   154    1
     2   159   157    1
     3   158   157    1
     4   154   157    1
     5   154   155    1
     6   135   134    2
     7   147   146    2
     8   163   162    2
     9   160   155   am
    10   160   161    1
    11   146   145    1
    12   164   161    1
    13   164   165    1
    14   177   176    2
    15   155   156    2
    16   172   171    2
    17   134   133    1
    18   134   144   am
    19   162   161    1
    20   162   169   am
    21   145   144    1
    22   145   148    1
    23   133   136    1
    24   133   132    1
    25   165   166    1
    26   171   170    1
    27   171   174   am
    28   176   175    1
    29   176   180   am
    30   175   174    1
    31   175   178    1
    32   136   137    1
    33   169   170    1
    34   138   137   ar
    35   138   140   ar
    36   170   173    1
    37   179   178    1
    38   119   120    2
    39   119   118    1
    40   148   149    1
    41   168   166   ar
    42   166   167   ar
    43   137   139   ar
    44   180   181    1
    45   140   142   ar
    46   183   182    2
    47   127   126    2
    48   181   182    1
    49   182   184   am
    50   124   125    1
    51   149   150    1
    52   117   118    1
    53   118   121    1
    54   187   186    2
    55   126   125    1
    56   184   185    1
    57   139   141   ar
    58   142   141   ar
    59   142   143    1
    60   186   185    1
    61   125   128    1
    62   185   188    1
    63   123   121    1
    64   128   129    1
    65   121   122    1
    66   150   151    1
    67   152   151    1
    68   107   106    1
    69   107   108    2
    70   129   130    2
    71   129   131   am
    72   106   105    1
    73   106   109    1
    74   188   190    1
    75   188   189    1
    76   110   109    1
    77    98    97    2
    78   105    97   am
    79   109   111    1
    80    97    96    1
    81    96    95    1
    82    96    99    1
    83    64    63    2
    84    63    65   am
    85    63    62    1
    86    40    39    1
    87    62    59    1
    88    99   100    1
    89   101   100   ar
    90   101   103   ar
    91    57    55   ar
    92   116   113    1
    93   112   113    1
    94    41    39    1
    95   100   102   ar
    96    61    60    2
    97    23    22    1
    98    23    24    1
    99    39    38    1
   100   103   104   ar
   101    59    60    1
   102    59    58    1
   103   113   114    1
   104    22    20   am
   105    60    66   am
   106   102   104   ar
   107    24    25    2
   108    24    26   am
   109    55    56   ar
   110    55    54    1
   111    38    35    1
   112    53    52    2
   113   114   115    2
   114    58    52   am
   115    26    27    1
   116    83    82   ar
   117    52    51    1
   118    35    34    1
   119    35    36    1
   120    72    74   ar
   121    72    71   ar
   122    54    51    1
   123    20    19    1
   124    20    21    2
   125    66    67    1
   126    74    76   ar
   127    27    30    1
   128    27    28    1
   129    67    70    1
   130    67    68    1
   131    19    18    1
   132    70    71    1
   133    51    50    1
   134    30    31    1
   135    37    36    2
   136    82    84   ar
   137    82    81    1
   138    71    73   ar
   139    32    31    1
   140    76    75   ar
   141    28    29    2
   142    78    81    1
   143    78    77    1
   144    78    79    1
   145    31    33    1
   146    50    44   am
   147    68    69    2
   148    18    12   am
   149    13    12    2
   150    73    75   ar
   151    12    11    1
   152    79    80    2
   153    44    45    2
   154    44    43    1
   155    14    11    1
   156    14    15    1
   157    94    93   ar
   158    94    92   ar
   159    11    10    1
   160    43    46    1
   161    43    42    1
   162    93    91   ar
   163    46    47    1
   164    92    90   ar
   165     9     7   ar
   166    48    47    2
   167    15    16    2
   168    15    17   am
   169    47    49   am
   170    91    90   ar
   171    85    86    1
   172     8     7   ar
   173     7     6    1
   174    90    89    1
   175     5     6    1
   176     5     2    1
   177    86    89    1
   178    86    87    1
   179     4     3    2
   180     3     2    1
   181     2     1    1
   182    87    88    2
