@<TRIPOS>MOLECULE
tmp/3bd9A00.pdb
 180 171 0 0 0
SMALL
GASTEIGER

@<TRIPOS>ATOM
      1  N          2.6960   21.3420   55.0540 N.3    15  ARG15      -0.1231
      2  CA         1.2910   21.0790   54.7390 C.3    15  ARG15       0.1694
      3  C          1.1000   19.6490   54.2160 C.2    15  ARG15       0.2592
      4  O          1.8130   19.2070   53.3160 O.2    15  ARG15      -0.2718
      5  CB         0.7760   22.0710   53.6870 C.3    15  ARG15       0.0321
      6  CG        -0.5650   22.7080   54.0650 C.3    15  ARG15       0.0489
      7  CD        -1.1850   23.4880   52.9070 C.3    15  ARG15       0.2205
      8  NE        -1.5840   22.5960   51.8200 N.pl3  15  ARG15      -0.0865
      9  CZ        -2.3130   22.9630   50.7700 C.cat  15  ARG15       0.5346
     10  NH1       -2.7290   24.2200   50.6540 N.pl3  15  ARG15       0.1354
     11  NH2       -2.6350   22.0700   49.8380 N.pl3  15  ARG15       0.1354
     12  N          0.1300   18.9430   54.7870 N.am   16  LYS16      -0.1966
     13  CA        -0.1840   17.5590   54.4210 C.3    16  LYS16       0.1728
     14  C          0.7900   16.5490   55.0220 C.2    16  LYS16       0.2617
     15  O          0.6970   15.3520   54.7520 O.2    16  LYS16      -0.2715
     16  CB        -0.2250   17.3780   52.8970 C.3    16  LYS16       0.0311
     17  CG        -1.0890   18.4000   52.1530 C.3    16  LYS16       0.0038
     18  CD        -2.3940   18.7000   52.8780 C.3    16  LYS16       0.0206
     19  CE        -3.2950   17.4810   52.9720 C.3    16  LYS16       0.1093
     20  NZ        -4.5520   17.7980   53.7180 N.3    16  LYS16      -0.1314
     21  N          1.7170   17.0270   55.8450 N.am   17  GLY17      -0.1940
     22  CA         2.6640   16.1210   56.4690 C.3    17  GLY17       0.2014
     23  C          2.1120   15.6030   57.7850 C.2    17  GLY17       0.2639
     24  O          2.6830   14.7000   58.3980 O.2    17  GLY17      -0.2714
     25  N          0.9960   16.1890   58.2120 N.am   18  GLY18      -0.1939
     26  CA         0.3550   15.8070   59.4570 C.3    18  GLY18       0.2014
     27  C          0.5070   16.8580   60.5460 C.2    18  GLY18       0.2640
     28  O          0.6310   16.5160   61.7270 O.2    18  GLY18      -0.2714
     29  N          0.4940   18.1370   60.1630 N.am   19  THR19      -0.1936
     30  CA         0.6460   19.2240   61.1290 C.3    19  THR19       0.2028
     31  C         -0.4700   19.3040   62.1780 C.2    19  THR19       0.2642
     32  O         -0.1980   19.5220   63.3620 O.2    19  THR19      -0.2714
     33  CB         0.7290   20.5860   60.4210 C.3    19  THR19       0.1808
     34  OG1       -0.4730   20.8030   59.6660 O.3    19  THR19      -0.2208
     35  CG2        1.9450   20.6280   59.4780 C.3    19  THR19       0.0379
     36  N         -1.7210   19.1540   61.7500 N.am   20  ARG20      -0.1963
     37  CA        -2.8610   19.2080   62.6820 C.3    20  ARG20       0.1729
     38  C         -2.7750   18.0560   63.6930 C.2    20  ARG20       0.2616
     39  O         -2.8990   18.2610   64.9060 O.2    20  ARG20      -0.2715
     40  CB        -4.1790   19.1370   61.8960 C.3    20  ARG20       0.0348
     41  CG        -5.4050   18.7190   62.7120 C.3    20  ARG20       0.0492
     42  CD        -6.3520   19.8780   63.0430 C.3    20  ARG20       0.2205
     43  NE        -5.7570   20.8710   63.9380 N.pl3  20  ARG20      -0.0865
     44  CZ        -6.4630   21.7140   64.6930 C.cat  20  ARG20       0.5346
     45  NH1       -7.7930   21.6830   64.6650 N.pl3  20  ARG20       0.1354
     46  NH2       -5.8450   22.5890   65.4800 N.pl3  20  ARG20       0.1354
     47  N         -2.5450   16.8490   63.1850 N.am   21  ALA21      -0.1977
     48  CA        -2.4210   15.6630   64.0260 C.3    21  ALA21       0.1597
     49  C         -1.3010   15.8480   65.0440 C.2    21  ALA21       0.2287
     50  O         -1.4630   15.5420   66.2240 O.2    21  ALA21      -0.2864
     51  CB        -2.1380   14.4410   63.1590 C.3    21  ALA21       0.0319
     52  N         -1.8540   15.9790   69.1420 N.3    25  MET25      -0.1245
     53  CA        -1.2180   14.9800   69.9860 C.3    25  MET25       0.1570
     54  C         -0.3030   15.6010   71.0320 C.2    25  MET25       0.2261
     55  O         -0.2690   15.1480   72.1720 O.2    25  MET25      -0.2867
     56  CB        -0.4470   13.9820   69.1240 C.3    25  MET25       0.0387
     57  CG        -1.3570   13.1670   68.2110 C.3    25  MET25       0.0595
     58  SD        -0.4650   11.9340   67.2580 S.3    25  MET25      -0.1393
     59  CE        -1.8250   10.9850   66.5490 C.3    25  MET25       0.0692
     60  N          1.3850   25.8460   58.6130 N.3    73  PRO73      -0.2116
     61  CA         1.9650   25.1530   57.4530 C.3    73  PRO73       0.1372
     62  C          2.5040   26.0450   56.3300 C.2    73  PRO73       0.2244
     63  O          3.5290   25.7270   55.7240 O.2    73  PRO73      -0.2868
     64  CB         0.8150   24.2750   56.9700 C.3    73  PRO73       0.0268
     65  CG         0.1170   23.9290   58.2380 C.3    73  PRO73       0.0207
     66  CD         0.0760   25.2610   58.9580 C.3    73  PRO73       0.0892
     67  N          6.3480   13.7180   55.3300 N.3    99  ARG99      -0.1245
     68  CA         6.1490   12.3310   54.9790 C.3    99  ARG99       0.1563
     69  C          6.6000   12.1360   53.5480 C.2    99  ARG99       0.2260
     70  O          6.9820   13.1030   52.8810 O.2    99  ARG99      -0.2867
     71  CB         4.7090   11.8520   55.2180 C.3    99  ARG99       0.0307
     72  CG         3.5730   12.7330   54.8370 C.3    99  ARG99       0.0489
     73  CD         2.3190   12.2100   55.5620 C.3    99  ARG99       0.2205
     74  NE         1.0990   12.6720   54.9160 N.pl3  99  ARG99      -0.0865
     75  CZ         0.3450   11.9200   54.1230 C.cat  99  ARG99       0.5346
     76  NH1        0.6810   10.6610   53.8910 N.pl3  99  ARG99       0.1354
     77  NH2       -0.7260   12.4380   53.5370 N.pl3  99  ARG99       0.1354
     78  N         -1.2980   14.2890   48.1420 N.3   107  SER107     -0.1217
     79  CA        -2.2260   14.7300   49.1740 C.3   107  SER107      0.1889
     80  C         -2.5030   16.2260   48.9820 C.2   107  SER107      0.2288
     81  O         -3.6310   16.6920   49.1530 O.2   107  SER107     -0.2866
     82  CB        -1.6240   14.4750   50.5600 C.3   107  SER107      0.2089
     83  OG        -2.5450   14.8030   51.5860 O.3   107  SER107     -0.2183
     84  N         -6.2500   17.9850   47.9670 N.3   111  GLN111     -0.1245
     85  CA        -6.9370   19.0530   48.6710 C.3   111  GLN111      0.1566
     86  C         -7.3050   20.1660   47.6930 C.2   111  GLN111      0.2260
     87  O         -8.4130   20.7040   47.7490 O.2   111  GLN111     -0.2867
     88  CB        -6.0500   19.6010   49.7880 C.3   111  GLN111      0.0367
     89  CG        -6.7020   20.7030   50.6100 C.3   111  GLN111      0.0905
     90  CD        -5.9050   21.0430   51.8490 C.2   111  GLN111      0.2608
     91  OE1       -5.7590   20.2170   52.7520 O.2   111  GLN111     -0.2717
     92  NE2       -5.3760   22.2600   51.8990 N.am  111  GLN111     -0.0878
     93  N          6.4350   11.9670   59.7150 N.3   171  GLY171     -0.1225
     94  CA         4.9900   11.9000   59.5670 C.3   171  GLY171      0.1811
     95  C          4.4450   10.5440   59.1630 C.2   171  GLY171      0.2280
     96  O          3.2860   10.2340   59.4430 O.2   171  GLY171     -0.2866
     97  N          4.3220    8.7870   62.3460 N.3   174  LEU174     -0.1231
     98  CA         3.3170    9.3870   63.2200 C.3   174  LEU174      0.1693
     99  C          1.9740    8.7400   62.9330 C.2   174  LEU174      0.2591
    100  O          1.0880    8.6930   63.7840 O.2   174  LEU174     -0.2718
    101  CB         3.1910   10.8970   62.9790 C.3   174  LEU174      0.0284
    102  CG         2.3310   11.5950   64.0360 C.3   174  LEU174      0.0019
    103  CD1        3.1260   11.6720   65.3390 C.3   174  LEU174      0.0001
    104  CD2        1.9290   12.9910   63.5800 C.3   174  LEU174      0.0001
    105  N          1.8190    8.2550   61.7130 N.am  175  ILE175     -0.1980
    106  CA         0.5790    7.6100   61.3210 C.3   175  ILE175      0.1595
    107  C          0.5330    6.1550   61.7960 C.2   175  ILE175      0.2287
    108  O         -0.4880    5.7130   62.3190 O.2   175  ILE175     -0.2864
    109  CB         0.4010    7.6600   59.7890 C.3   175  ILE175      0.0276
    110  CG1        0.0990    9.0940   59.3540 C.3   175  ILE175      0.0022
    111  CG2       -0.7110    6.7040   59.3510 C.3   175  ILE175      0.0022
    112  CD1        0.2640    9.3350   57.8580 C.3   175  ILE175      0.0001
    113  N        -11.6110    4.4810   60.8670 N.3   206  ARG206     -0.1245
    114  CA       -11.0370    5.6850   60.2720 C.3   206  ARG206      0.1563
    115  C         -9.6930    5.4020   59.6000 C.2   206  ARG206      0.2260
    116  O         -9.3000    6.1010   58.6660 O.2   206  ARG206     -0.2867
    117  CB       -10.8760    6.7730   61.3380 C.3   206  ARG206      0.0307
    118  CG       -12.2330    7.4800   61.6070 C.3   206  ARG206      0.0489
    119  CD       -12.1370    8.7280   62.5140 C.3   206  ARG206      0.2205
    120  NE       -11.1730    9.7530   62.0850 N.pl3 206  ARG206     -0.0865
    121  CZ       -11.2370   10.4200   60.9180 C.cat 206  ARG206      0.5346
    122  NH1      -12.2000   10.2180   60.0070 N.pl3 206  ARG206      0.1354
    123  NH2      -10.3000   11.3420   60.6600 N.pl3 206  ARG206      0.1354
    124  N         -6.8190    5.5610   61.1580 N.3   208  PHE208     -0.1227
    125  CA        -5.7850    6.3170   61.8580 C.3   208  PHE208      0.1736
    126  C         -5.9460    6.1750   63.3660 C.2   208  PHE208      0.2595
    127  O         -6.9050    5.5730   63.8500 O.2   208  PHE208     -0.2718
    128  CB        -5.8740    7.8120   61.5260 C.3   208  PHE208      0.0547
    129  CG        -5.7730    8.1330   60.0630 C.ar  208  PHE208     -0.0202
    130  CD1       -6.8630    7.9570   59.2210 C.ar  208  PHE208     -0.0042
    131  CD2       -4.5970    8.6550   59.5370 C.ar  208  PHE208     -0.0042
    132  CE1       -6.7860    8.3030   57.8730 C.ar  208  PHE208     -0.0003
    133  CE2       -4.5070    9.0040   58.1920 C.ar  208  PHE208     -0.0003
    134  CZ        -5.6050    8.8290   57.3570 C.ar  208  PHE208     -0.0000
    135  N         -5.0010    6.7540   64.0990 N.am  209  TYR209     -0.1976
    136  CA        -5.0230    6.7510   65.5590 C.3   209  TYR209      0.1639
    137  C         -5.8920    7.9300   66.0070 C.2   209  TYR209      0.2290
    138  O         -5.9300    8.9670   65.3410 O.2   209  TYR209     -0.2864
    139  CB        -3.6030    6.9360   66.1130 C.3   209  TYR209      0.0560
    140  CG        -2.8010    5.6620   66.2670 C.ar  209  TYR209     -0.0198
    141  CD1       -2.8720    4.9100   67.4400 C.ar  209  TYR209     -0.0009
    142  CD2       -1.9750    5.2060   65.2410 C.ar  209  TYR209     -0.0009
    143  CE1       -2.1380    3.7310   67.5900 C.ar  209  TYR209      0.0417
    144  CE2       -1.2370    4.0280   65.3770 C.ar  209  TYR209      0.0417
    145  CZ        -1.3220    3.2950   66.5550 C.ar  209  TYR209      0.1957
    146  OH        -0.5990    2.1300   66.6960 O.3   209  TYR209     -0.2866
    147  N         -9.4340   13.1060   64.5060 N.3   221  LEU221     -0.1231
    148  CA        -9.2070   14.3320   63.7540 C.3   221  LEU221      0.1693
    149  C        -10.1420   14.4740   62.5580 C.2   221  LEU221      0.2591
    150  O        -10.5710   13.4810   61.9690 O.2   221  LEU221     -0.2718
    151  CB        -7.7510   14.3900   63.2980 C.3   221  LEU221      0.0284
    152  CG        -6.7610   14.1070   64.4310 C.3   221  LEU221      0.0019
    153  CD1       -5.3520   14.2190   63.9030 C.3   221  LEU221      0.0001
    154  CD2       -6.9780   15.0800   65.5800 C.3   221  LEU221      0.0001
    155  N        -10.4550   15.7210   62.2150 N.am  222  ALA222     -0.1980
    156  CA       -11.3450   16.0320   61.0990 C.3   222  ALA222      0.1597
    157  C        -11.0130   15.2130   59.8540 C.2   222  ALA222      0.2287
    158  O         -9.8450   15.0540   59.4970 O.2   222  ALA222     -0.2864
    159  CB       -11.2710   17.5230   60.7790 C.3   222  ALA222      0.0319
    160  N         -8.5230   11.9710   53.3950 N.3   223  ARG223     -0.1245
    161  CA        -9.1930   12.2330   52.1240 C.3   223  ARG223      0.1563
    162  C         -8.9000   11.1090   51.1330 C.2   223  ARG223      0.2260
    163  O         -7.8050   10.5410   51.1340 O.2   223  ARG223     -0.2867
    164  CB        -8.7280   13.5730   51.5530 C.3   223  ARG223      0.0307
    165  CG        -8.9460   14.7310   52.4880 C.3   223  ARG223      0.0489
    166  CD        -8.3530   16.0160   51.9310 C.3   223  ARG223      0.2205
    167  NE        -8.4890   17.0850   52.9110 N.pl3 223  ARG223     -0.0865
    168  CZ        -9.5920   17.8000   53.0880 C.cat 223  ARG223      0.5346
    169  NH1      -10.6680   17.5810   52.3450 N.pl3 223  ARG223      0.1354
    170  NH2       -9.6300   18.7170   54.0420 N.pl3 223  ARG223      0.1354
    171  N         -7.5730    9.5860   48.2000 N.3   225  HIS225     -0.1241
    172  CA        -6.5760    9.9290   47.2030 C.3   225  HIS225      0.1621
    173  C         -6.8590    9.3110   45.8470 C.2   225  HIS225      0.2264
    174  O         -7.5200    8.2800   45.7440 O.2   225  HIS225     -0.2867
    175  CB        -5.1810    9.5030   47.6620 C.3   225  HIS225      0.0745
    176  CG        -4.6090   10.3740   48.7350 C.ar  225  HIS225      0.0817
    177  ND1       -3.2780   10.3360   49.0920 N.ar  225  HIS225     -0.2268
    178  CD2       -5.1880   11.3000   49.5350 C.ar  225  HIS225      0.1154
    179  CE1       -3.0620   11.2000   50.0680 C.ar  225  HIS225      0.1986
    180  NE2       -4.2060   11.7970   50.3550 N.ar  225  HIS225     -0.2212
@<TRIPOS>BOND
     1   174   173    2
     2   173   172    1
     3   172   175    1
     4   172   171    1
     5   175   176    1
     6    86    87    2
     7    86    85    1
     8    84    85    1
     9    78    79    1
    10    85    88    1
    11   176   177   ar
    12   176   178   ar
    13    80    81    2
    14    80    79    1
    15   177   179   ar
    16    79    82    1
    17   178   180   ar
    18    88    89    1
    19    11     9    1
    20   179   180   ar
    21    82    83    1
    22    89    90    1
    23    10     9    1
    24     9     8    2
    25   162   163    2
    26   162   161    1
    27   164   161    1
    28   164   165    1
    29     8     7    1
    30    90    92   am
    31    90    91    2
    32   166   165    1
    33   166   167    1
    34   161   160    1
    35    17    18    1
    36    17    16    1
    37   169   168    1
    38    18    19    1
    39    70    69    2
    40    16    13    1
    41     7     6    1
    42   167   168    2
    43    19    20    1
    44   168   170    1
    45     4     3    2
    46    77    75    1
    47    69    68    1
    48     5     6    1
    49     5     2    1
    50    76    75    1
    51    75    74    2
    52     3     2    1
    53     3    12   am
    54    13    12    1
    55    13    14    1
    56     2     1    1
    57    15    14    2
    58    72    71    1
    59    72    73    1
    60    74    73    1
    61    68    71    1
    62    68    67    1
    63    14    21   am
    64    63    62    2
    65    21    22    1
    66    62    61    1
    67    22    23    1
    68    64    61    1
    69    64    65    1
    70   134   132   ar
    71   134   133   ar
    72    61    60    1
    73    23    25   am
    74    23    24    2
    75   112   110    1
    76   132   130   ar
    77   133   131   ar
    78    25    26    1
    79    65    66    1
    80    60    66    1
    81   116   115    2
    82    95    96    2
    83    95    94    1
    84   130   129   ar
    85   111   109    1
    86   110   109    1
    87    26    27    1
    88    35    33    1
    89   158   157    2
    90   131   129   ar
    91    94    93    1
    92   115   114    1
    93    34    33    1
    94   109   106    1
    95   157   156    1
    96   122   121    1
    97   129   128    1
    98    29    27   am
    99    29    30    1
   100   114   113    1
   101   114   117    1
   102    33    30    1
   103    27    28    2
   104   123   121    1
   105   159   156    1
   106   121   120    2
   107   156   155    1
   108    30    31    1
   109   124   125    1
   110   106   105    1
   111   106   107    1
   112   117   118    1
   113   128   125    1
   114   118   119    1
   115   105    99   am
   116    36    31   am
   117    36    37    1
   118   107   108    2
   119   125   126    1
   120    40    37    1
   121    40    41    1
   122   150   149    2
   123   120   119    1
   124    31    32    2
   125   155   149   am
   126    97    98    1
   127   149   148    1
   128    37    38    1
   129    41    42    1
   130    99    98    1
   131    99   100    2
   132   101    98    1
   133   101   102    1
   134    42    43    1
   135    51    48    1
   136    47    38   am
   137    47    48    1
   138   151   148    1
   139   151   152    1
   140   126   127    2
   141   126   135   am
   142   104   102    1
   143    38    39    2
   144   148   147    1
   145   153   152    1
   146    43    44    2
   147    48    49    1
   148   102   103    1
   149   135   136    1
   150   152   154    1
   151    45    44    1
   152    44    46    1
   153    49    50    2
   154   142   144   ar
   155   142   140   ar
   156   138   137    2
   157   144   145   ar
   158   136   137    1
   159   136   139    1
   160   139   140    1
   161   140   141   ar
   162    59    58    1
   163   145   146    1
   164   145   143   ar
   165    58    57    1
   166   141   143   ar
   167    57    56    1
   168    56    53    1
   169    52    53    1
   170    53    54    1
   171    54    55    2
