@<TRIPOS>MOLECULE
tmp/3bdaA01.pdb
 105 102 0 0 0
SMALL
GASTEIGER

@<TRIPOS>ATOM
      1  N         34.2130   31.0320   36.7360 N.3   265  ASN265     -0.1225
      2  CA        34.9060   31.1650   35.4590 C.3   265  ASN265      0.1785
      3  C         34.6420   30.0070   34.5100 C.2   265  ASN265      0.2597
      4  O         34.7300   28.8410   34.8880 O.2   265  ASN265     -0.2718
      5  CB        36.4070   31.3090   35.6910 C.3   265  ASN265      0.1169
      6  CG        36.7360   32.5020   36.5510 C.2   265  ASN265      0.2627
      7  OD1       36.4350   33.6380   36.1870 O.2   265  ASN265     -0.2716
      8  ND2       37.3400   32.2560   37.7060 N.am  265  ASN265     -0.0877
      9  N         34.3210   30.3520   33.2730 N.am  266  ASP266     -0.1974
     10  CA        34.0370   29.3800   32.2290 C.3   266  ASP266      0.1709
     11  C         35.1800   29.4780   31.2140 C.2   266  ASP266      0.2293
     12  O         35.4460   30.5530   30.6880 O.2   266  ASP266     -0.2864
     13  CB        32.7000   29.7420   31.5580 C.3   266  ASP266      0.1436
     14  CG        32.2280   28.6930   30.5640 C.2   266  ASP266      0.3671
     15  OD1       31.7330   27.6310   31.0020 O.co2 266  ASP266     -0.2456
     16  OD2       32.3470   28.9290   29.3400 O.co2 266  ASP266     -0.2456
     17  N         38.3390   29.6590   31.5340 N.3   268  PHE268     -0.1241
     18  CA        39.3130   30.6830   31.9020 C.3   268  PHE268      0.1605
     19  C         40.0000   30.3140   33.2090 C.2   268  PHE268      0.2264
     20  O         39.3380   29.9810   34.1930 O.2   268  PHE268     -0.2867
     21  CB        38.6280   32.0420   32.0560 C.3   268  PHE268      0.0534
     22  CG        39.5790   33.1730   32.3250 C.ar  268  PHE268     -0.0203
     23  CD1       40.4250   33.6400   31.3250 C.ar  268  PHE268     -0.0042
     24  CD2       39.6360   33.7680   33.5800 C.ar  268  PHE268     -0.0042
     25  CE1       41.3150   34.6850   31.5690 C.ar  268  PHE268     -0.0003
     26  CE2       40.5250   34.8170   33.8370 C.ar  268  PHE268     -0.0003
     27  CZ        41.3650   35.2740   32.8300 C.ar  268  PHE268     -0.0000
     28  N         44.1140   30.6070   27.4140 N.3   356  GLU356     -0.1245
     29  CA        43.7630   31.2490   28.6760 C.3   356  GLU356      0.1567
     30  C         43.0530   30.3150   29.6650 C.2   356  GLU356      0.2260
     31  O         42.8800   30.6630   30.8310 O.2   356  GLU356     -0.2867
     32  CB        42.8870   32.4810   28.4260 C.3   356  GLU356      0.0388
     33  CG        41.5800   32.1820   27.7120 C.3   356  GLU356      0.1160
     34  CD        41.6580   32.4060   26.2110 C.2   356  GLU356      0.3649
     35  OE1       42.6380   31.9500   25.5790 O.co2 356  GLU356     -0.2457
     36  OE2       40.7280   33.0340   25.6610 O.co2 356  GLU356     -0.2457
     37  N         30.7930   34.3690   25.8240 N.3   545  HIS545     -0.1226
     38  CA        32.2280   34.3610   25.5940 C.3   545  HIS545      0.1752
     39  C         32.5250   34.8640   24.1900 C.2   545  HIS545      0.2595
     40  O         31.7020   34.7220   23.2860 O.2   545  HIS545     -0.2718
     41  CB        32.7900   32.9500   25.7760 C.3   545  HIS545      0.0759
     42  CG        34.2600   32.9220   26.0640 C.ar  545  HIS545      0.0818
     43  ND1       35.2080   33.3260   25.1460 N.ar  545  HIS545     -0.2268
     44  CD2       34.9430   32.5710   27.1790 C.ar  545  HIS545      0.1154
     45  CE1       36.4110   33.2260   25.6820 C.ar  545  HIS545      0.1986
     46  NE2       36.2790   32.7710   26.9160 N.ar  545  HIS545     -0.2212
     47  N         33.6920   35.4680   24.0020 N.am  546  GLU546     -0.1979
     48  CA        34.0370   35.9700   22.6800 C.3   546  GLU546      0.1602
     49  C         34.1500   34.8520   21.6490 C.2   546  GLU546      0.2287
     50  O         33.7650   35.0350   20.4940 O.2   546  GLU546     -0.2864
     51  CB        35.3450   36.7650   22.7320 C.3   546  GLU546      0.0415
     52  CG        35.2200   38.0700   23.4950 C.3   546  GLU546      0.1163
     53  CD        36.5630   38.7080   23.7760 C.2   546  GLU546      0.3649
     54  OE1       37.1320   39.3410   22.8610 O.co2 546  GLU546     -0.2457
     55  OE2       37.0510   38.5590   24.9120 O.co2 546  GLU546     -0.2457
     56  N         31.1870   35.6310   33.2270 N.3   584  ALA584     -0.1245
     57  CA        31.9890   35.5220   34.4360 C.3   584  ALA584      0.1562
     58  C         32.0790   36.9400   34.9970 C.2   584  ALA584      0.2260
     59  O         32.2620   37.8960   34.2440 O.2   584  ALA584     -0.2867
     60  CB        33.3740   34.9920   34.0990 C.3   584  ALA584      0.0290
     61  N         34.3240   38.8200   36.3390 N.3   586  GLY586     -0.1210
     62  CA        35.4340   39.6810   35.9580 C.3   586  GLY586      0.1956
     63  C         35.7270   39.7750   34.4680 C.2   586  GLY586      0.2612
     64  O         36.7460   40.3420   34.0670 O.2   586  GLY586     -0.2717
     65  N         34.8360   39.2320   33.6430 N.am  587  TYR587     -0.1962
     66  CA        35.0230   39.2430   32.1920 C.3   587  TYR587      0.1771
     67  C         34.3240   40.4690   31.6150 C.2   587  TYR587      0.2620
     68  O         33.1520   40.4150   31.2390 O.2   587  TYR587     -0.2715
     69  CB        34.4370   37.9530   31.6070 C.3   587  TYR587      0.0574
     70  CG        34.7930   37.6440   30.1660 C.ar  587  TYR587     -0.0198
     71  CD1       34.3870   36.4380   29.5880 C.ar  587  TYR587     -0.0009
     72  CD2       35.5230   38.5410   29.3790 C.ar  587  TYR587     -0.0009
     73  CE1       34.6940   36.1260   28.2700 C.ar  587  TYR587      0.0417
     74  CE2       35.8360   38.2360   28.0460 C.ar  587  TYR587      0.0417
     75  CZ        35.4140   37.0220   27.5020 C.ar  587  TYR587      0.1957
     76  OH        35.6950   36.6970   26.1910 O.3   587  TYR587     -0.2866
     77  N         35.0540   41.5780   31.5500 N.am  588  HIS588     -0.1959
     78  CA        34.5000   42.8300   31.0540 C.3   588  HIS588      0.1787
     79  C         33.8300   42.7810   29.6810 C.2   588  HIS588      0.2620
     80  O         32.6870   43.2100   29.5310 O.2   588  HIS588     -0.2715
     81  CB        35.5780   43.9150   31.0440 C.3   588  HIS588      0.0785
     82  CG        35.1030   45.2190   30.4880 C.ar  588  HIS588      0.0821
     83  ND1       35.4090   45.6410   29.2120 N.ar  588  HIS588     -0.2267
     84  CD2       34.2960   46.1690   31.0170 C.ar  588  HIS588      0.1154
     85  CE1       34.8100   46.7950   28.9780 C.ar  588  HIS588      0.1986
     86  NE2       34.1270   47.1370   30.0570 N.ar  588  HIS588     -0.2212
     87  N         34.5360   42.2720   28.6800 N.am  589  MET589     -0.1977
     88  CA        33.9770   42.2120   27.3350 C.3   589  MET589      0.1605
     89  C         32.6530   41.4480   27.3090 C.2   589  MET589      0.2287
     90  O         31.7040   41.8680   26.6420 O.2   589  MET589     -0.2864
     91  CB        34.9770   41.5670   26.3700 C.3   589  MET589      0.0413
     92  CG        34.5700   41.6560   24.9080 C.3   589  MET589      0.0598
     93  SD        34.2650   43.3630   24.3700 S.3   589  MET589     -0.1393
     94  CE        35.9370   44.0610   24.4850 C.3   589  MET589      0.0692
     95  N         40.3600   38.2120   18.1850 N.3   744  ARG744     -0.1245
     96  CA        40.9990   36.9040   18.0980 C.3   744  ARG744      0.1563
     97  C         40.0830   35.8930   17.4150 C.2   744  ARG744      0.2260
     98  O         40.5410   34.8460   16.9560 O.2   744  ARG744     -0.2867
     99  CB        41.3210   36.3670   19.4980 C.3   744  ARG744      0.0307
    100  CG        42.2980   37.1920   20.3230 C.3   744  ARG744      0.0489
    101  CD        42.2840   36.7070   21.7710 C.3   744  ARG744      0.2205
    102  NE        42.5500   35.2720   21.8750 N.pl3 744  ARG744     -0.0865
    103  CZ        42.1690   34.5100   22.8990 C.cat 744  ARG744      0.5346
    104  NH1       41.4970   35.0410   23.9130 N.pl3 744  ARG744      0.1354
    105  NH2       42.4590   33.2140   22.9100 N.pl3 744  ARG744      0.1354
@<TRIPOS>BOND
     1    98    97    2
     2    97    96    1
     3    96    95    1
     4    96    99    1
     5    99   100    1
     6   100   101    1
     7    50    49    2
     8    49    48    1
     9   101   102    1
    10   102   103    2
    11    48    51    1
    12    48    47    1
    13    51    52    1
    14    54    53   ar
    15   103   105    1
    16   103   104    1
    17    40    39    2
    18    52    53    1
    19    53    55   ar
    20    47    39   am
    21    39    38    1
    22    93    94    1
    23    93    92    1
    24    92    91    1
    25    43    45   ar
    26    43    42   ar
    27    35    34   ar
    28    38    41    1
    29    38    37    1
    30    36    34   ar
    31    45    46   ar
    32    41    42    1
    33    42    44   ar
    34    76    75    1
    35    34    33    1
    36    91    88    1
    37    90    89    2
    38    46    44   ar
    39    89    88    1
    40    88    87    1
    41    28    29    1
    42    75    74   ar
    43    75    73   ar
    44    33    32    1
    45    74    72   ar
    46    73    71   ar
    47    32    29    1
    48    29    30    1
    49    87    79   am
    50    85    83   ar
    51    85    86   ar
    52    83    82   ar
    53    16    14   ar
    54    72    70   ar
    55    80    79    2
    56    71    70   ar
    57    30    31    2
    58    79    78    1
    59    86    84   ar
    60    70    69    1
    61    82    84   ar
    62    82    81    1
    63    14    15   ar
    64    14    13    1
    65    12    11    2
    66    81    78    1
    67    78    77    1
    68    11    10    1
    69    68    67    2
    70    23    25   ar
    71    23    22   ar
    72    17    18    1
    73    77    67   am
    74    13    10    1
    75    25    27   ar
    76    69    66    1
    77    67    66    1
    78    18    21    1
    79    18    19    1
    80    21    22    1
    81    66    65    1
    82    10     9    1
    83    22    24   ar
    84    27    26   ar
    85    19    20    2
    86    56    57    1
    87     9     3   am
    88    24    26   ar
    89    65    63   am
    90    64    63    2
    91    60    57    1
    92    59    58    2
    93    57    58    1
    94    63    62    1
    95     3     4    2
    96     3     2    1
    97     2     5    1
    98     2     1    1
    99     5     6    1
   100    62    61    1
   101     7     6    2
   102     6     8   am
