@<TRIPOS>MOLECULE
tmp/3bdaA02.pdb
 183 175 0 0 0
SMALL
GASTEIGER

@<TRIPOS>ATOM
      1  N         33.0190   20.1750   39.2860 N.3    77  GLU77      -0.1245
      2  CA        31.6910   20.6510   38.9240 C.3    77  GLU77       0.1567
      3  C         30.7280   19.5240   38.5780 C.2    77  GLU77       0.2260
      4  O         31.0840   18.5750   37.8730 O.2    77  GLU77      -0.2867
      5  CB        31.7560   21.6060   37.7200 C.3    77  GLU77       0.0388
      6  CG        32.6110   22.8570   37.9280 C.3    77  GLU77       0.1160
      7  CD        32.5160   23.8350   36.7690 C.2    77  GLU77       0.3649
      8  OE1       33.3210   24.7910   36.7320 O.co2  77  GLU77      -0.2457
      9  OE2       31.6330   23.6630   35.8980 O.co2  77  GLU77      -0.2457
     10  N         29.4020   25.5310   35.9720 N.3   122  ASN122     -0.1225
     11  CA        29.3490   26.7420   35.1660 C.3   122  ASN122      0.1785
     12  C         28.6350   26.5700   33.8320 C.2   122  ASN122      0.2598
     13  O         27.8670   27.4320   33.4060 O.2   122  ASN122     -0.2718
     14  CB        30.7650   27.2410   34.9000 C.3   122  ASN122      0.1169
     15  CG        31.3370   27.9890   36.0740 C.2   122  ASN122      0.2627
     16  OD1       30.8950   29.0960   36.3850 O.2   122  ASN122     -0.2716
     17  ND2       32.3150   27.3880   36.7470 N.am  122  ASN122     -0.0877
     18  N         28.8970   25.4560   33.1690 N.am  123  GLY123     -0.1942
     19  CA        28.2830   25.2290   31.8780 C.3   123  GLY123      0.2014
     20  C         28.4790   23.8250   31.3630 C.2   123  GLY123      0.2639
     21  O         28.1820   22.8560   32.0630 O.2   123  GLY123     -0.2714
     22  N         29.0010   23.7190   30.1440 N.am  124  GLY124     -0.1939
     23  CA        29.1970   22.4210   29.5150 C.3   124  GLY124      0.2014
     24  C         29.9690   21.3580   30.2740 C.2   124  GLY124      0.2638
     25  O         29.5590   20.1930   30.3190 O.2   124  GLY124     -0.2714
     26  N         31.0980   21.7480   30.8540 N.am  125  LEU125     -0.1977
     27  CA        31.9330   20.8150   31.6020 C.3   125  LEU125      0.1596
     28  C         31.1860   20.2560   32.8140 C.2   125  LEU125      0.2287
     29  O         31.2330   19.0550   33.0850 O.2   125  LEU125     -0.2864
     30  CB        33.2240   21.5170   32.0410 C.3   125  LEU125      0.0297
     31  CG        34.2580   20.7150   32.8380 C.3   125  LEU125      0.0022
     32  CD1       34.5010   19.3890   32.1560 C.3   125  LEU125      0.0001
     33  CD2       35.5650   21.5010   32.9220 C.3   125  LEU125      0.0001
     34  N         28.2400   18.0090   31.6270 N.3   128  LEU128     -0.1245
     35  CA        28.7180   16.7370   31.0900 C.3   128  LEU128      0.1561
     36  C         28.8660   15.7210   32.2130 C.2   128  LEU128      0.2260
     37  O         28.5170   14.5540   32.0520 O.2   128  LEU128     -0.2867
     38  CB        30.0670   16.9090   30.3740 C.3   128  LEU128      0.0270
     39  CG        30.5600   15.6370   29.6570 C.3   128  LEU128      0.0019
     40  CD1       29.7040   15.3760   28.4230 C.3   128  LEU128      0.0001
     41  CD2       32.0200   15.7820   29.2500 C.3   128  LEU128      0.0001
     42  N         34.2130   31.0320   36.7360 N.3   265  ASN265     -0.1225
     43  CA        34.9060   31.1650   35.4590 C.3   265  ASN265      0.1785
     44  C         34.6420   30.0070   34.5100 C.2   265  ASN265      0.2597
     45  O         34.7300   28.8410   34.8880 O.2   265  ASN265     -0.2718
     46  CB        36.4070   31.3090   35.6910 C.3   265  ASN265      0.1169
     47  CG        36.7360   32.5020   36.5510 C.2   265  ASN265      0.2627
     48  OD1       36.4350   33.6380   36.1870 O.2   265  ASN265     -0.2716
     49  ND2       37.3400   32.2560   37.7060 N.am  265  ASN265     -0.0877
     50  N         34.3210   30.3520   33.2730 N.am  266  ASP266     -0.1960
     51  CA        34.0370   29.3800   32.2290 C.3   266  ASP266      0.1840
     52  C         35.1800   29.4780   31.2140 C.2   266  ASP266      0.2622
     53  O         35.4460   30.5530   30.6880 O.2   266  ASP266     -0.2715
     54  CB        32.7000   29.7420   31.5580 C.3   266  ASP266      0.1450
     55  CG        32.2280   28.6930   30.5640 C.2   266  ASP266      0.3671
     56  OD1       31.7330   27.6310   31.0020 O.co2 266  ASP266     -0.2456
     57  OD2       32.3470   28.9290   29.3400 O.co2 266  ASP266     -0.2456
     58  N         35.8680   28.3700   30.9540 N.am  267  ASN267     -0.1958
     59  CA        36.9620   28.3730   29.9840 C.3   267  ASN267      0.1819
     60  C         37.9910   29.4640   30.2650 C.2   267  ASN267      0.2621
     61  O         38.4600   30.1210   29.3400 O.2   267  ASN267     -0.2715
     62  CB        36.4060   28.5820   28.5700 C.3   267  ASN267      0.1195
     63  CG        35.5860   27.4070   28.0840 C.2   267  ASN267      0.2630
     64  OD1       36.1210   26.4470   27.5350 O.2   267  ASN267     -0.2716
     65  ND2       34.2770   27.4740   28.2910 N.am  267  ASN267     -0.0877
     66  N         38.3390   29.6590   31.5340 N.am  268  PHE268     -0.1974
     67  CA        39.3130   30.6830   31.9020 C.3   268  PHE268      0.1639
     68  C         40.0000   30.3140   33.2090 C.2   268  PHE268      0.2290
     69  O         39.3380   29.9810   34.1930 O.2   268  PHE268     -0.2864
     70  CB        38.6280   32.0420   32.0560 C.3   268  PHE268      0.0560
     71  CG        39.5790   33.1730   32.3250 C.ar  268  PHE268     -0.0200
     72  CD1       40.4250   33.6400   31.3250 C.ar  268  PHE268     -0.0042
     73  CD2       39.6360   33.7680   33.5800 C.ar  268  PHE268     -0.0042
     74  CE1       41.3150   34.6850   31.5690 C.ar  268  PHE268     -0.0003
     75  CE2       40.5250   34.8170   33.8370 C.ar  268  PHE268     -0.0003
     76  CZ        41.3650   35.2740   32.8300 C.ar  268  PHE268     -0.0000
     77  N         39.0920   17.1250   33.1620 N.3   313  ASP313     -0.1239
     78  CA        39.9590   18.2740   32.9170 C.3   313  ASP313      0.1674
     79  C         41.1310   18.1720   33.8950 C.2   313  ASP313      0.2266
     80  O         41.3080   17.1430   34.5420 O.2   313  ASP313     -0.2867
     81  CB        39.2270   19.6030   33.1160 C.3   313  ASP313      0.1410
     82  CG        39.7780   20.6990   32.2140 C.2   313  ASP313      0.3668
     83  OD1       39.0920   21.0700   31.2470 O.co2 313  ASP313     -0.2456
     84  OD2       40.9060   21.1710   32.4520 O.co2 313  ASP313     -0.2456
     85  N         41.5410   20.0660   36.5850 N.3   315  HIS315     -0.1241
     86  CA        41.1730   20.5300   37.9190 C.3   315  HIS315      0.1621
     87  C         41.5570   19.5630   39.0380 C.2   315  HIS315      0.2264
     88  O         41.9840   19.9930   40.1040 O.2   315  HIS315     -0.2867
     89  CB        39.6810   20.8500   37.9560 C.3   315  HIS315      0.0745
     90  CG        39.2510   21.7820   36.8650 C.ar  315  HIS315      0.0817
     91  ND1       37.9400   21.9060   36.4600 N.ar  315  HIS315     -0.2268
     92  CD2       39.9670   22.6240   36.0810 C.ar  315  HIS315      0.1154
     93  CE1       37.8660   22.7830   35.4740 C.ar  315  HIS315      0.1986
     94  NE2       39.0820   23.2340   35.2260 N.ar  315  HIS315     -0.2212
     95  N         39.4470   19.2890   27.7530 N.3   351  HIS351     -0.1226
     96  CA        38.2240   19.9650   27.3020 C.3   351  HIS351      0.1752
     97  C         38.2360   21.2180   26.4220 C.2   351  HIS351      0.2596
     98  O         37.1920   21.5930   25.8880 O.2   351  HIS351     -0.2718
     99  CB        37.3600   20.2940   28.5160 C.3   351  HIS351      0.0759
    100  CG        36.8120   19.0930   29.2140 C.ar  351  HIS351      0.0818
    101  ND1       35.6560   18.4620   28.8110 N.ar  351  HIS351     -0.2268
    102  CD2       37.2560   18.4130   30.2970 C.ar  351  HIS351      0.1154
    103  CE1       35.4090   17.4460   29.6180 C.ar  351  HIS351      0.1986
    104  NE2       36.3650   17.3950   30.5290 N.ar  351  HIS351     -0.2212
    105  N         39.3620   21.8980   26.2920 N.am  352  THR352     -0.1953
    106  CA        39.3930   23.0990   25.4540 C.3   352  THR352      0.1897
    107  C         40.8360   23.4350   25.1860 C.2   352  THR352      0.2313
    108  O         41.6880   23.2260   26.0450 O.2   352  THR352     -0.2863
    109  CB        38.7170   24.3290   26.1260 C.3   352  THR352      0.1794
    110  OG1       38.6940   25.4260   25.2020 O.3   352  THR352     -0.2208
    111  CG2       39.4850   24.7680   27.3620 C.3   352  THR352      0.0378
    112  N         42.6540   29.1310   29.2090 N.3   357  ALA357     -0.1245
    113  CA        41.9600   28.1820   30.0780 C.3   357  ALA357      0.1562
    114  C         42.8810   27.1390   30.7150 C.2   357  ALA357      0.2260
    115  O         42.4850   26.4480   31.6540 O.2   357  ALA357     -0.2867
    116  CB        40.8610   27.4790   29.2950 C.3   357  ALA357      0.0290
    117  N         37.1610   15.5140   23.2660 N.3   429  VAL429     -0.1245
    118  CA        35.7180   15.3440   23.4110 C.3   429  VAL429      0.1561
    119  C         34.8620   15.3920   22.1500 C.2   429  VAL429      0.2260
    120  O         33.6340   15.4250   22.2270 O.2   429  VAL429     -0.2867
    121  CB        35.1930   16.3490   24.4560 C.3   429  VAL429      0.0252
    122  CG1       35.6840   15.9270   25.8500 C.3   429  VAL429      0.0019
    123  CG2       35.7100   17.7550   24.1420 C.3   429  VAL429      0.0019
    124  N         31.4280   13.6810   23.0830 N.3   458  ASN458     -0.1240
    125  CA        30.4480   13.9800   24.1240 C.3   458  ASN458      0.1653
    126  C         29.0400   13.5420   23.7500 C.2   458  ASN458      0.2266
    127  O         28.7640   13.1820   22.6050 O.2   458  ASN458     -0.2867
    128  CB        30.4440   15.4890   24.4310 C.3   458  ASN458      0.1155
    129  CG        31.6240   15.9180   25.3110 C.2   458  ASN458      0.2627
    130  OD1       31.8970   17.1160   25.4840 O.2   458  ASN458     -0.2716
    131  ND2       32.3160   14.9430   25.8760 N.am  458  ASN458     -0.0877
    132  N         34.6580   33.6890   22.0470 N.3   547  TYR547     -0.1227
    133  CA        34.8010   32.6120   21.0690 C.3   547  TYR547      0.1736
    134  C         33.4730   32.0160   20.5980 C.2   547  TYR547      0.2595
    135  O         33.3870   31.5080   19.4750 O.2   547  TYR547     -0.2718
    136  CB        35.7480   31.5150   21.5990 C.3   547  TYR547      0.0548
    137  CG        35.1230   30.4030   22.4160 C.ar  547  TYR547     -0.0200
    138  CD1       34.5100   29.3090   21.7970 C.ar  547  TYR547     -0.0009
    139  CD2       35.1910   30.4160   23.8100 C.ar  547  TYR547     -0.0009
    140  CE1       33.9880   28.2580   22.5480 C.ar  547  TYR547      0.0417
    141  CE2       34.6710   29.3690   24.5660 C.ar  547  TYR547      0.0417
    142  CZ        34.0740   28.2950   23.9340 C.ar  547  TYR547      0.1957
    143  OH        33.5680   27.2560   24.6930 O.3   547  TYR547     -0.2866
    144  N         32.4400   32.0910   21.4330 N.am  548  LYS548     -0.1980
    145  CA        31.1250   31.5600   21.0630 C.3   548  LYS548      0.1596
    146  C         30.4280   32.5080   20.0820 C.2   548  LYS548      0.2287
    147  O         29.4240   32.1600   19.4540 O.2   548  LYS548     -0.2864
    148  CB        30.2750   31.3350   22.3210 C.3   548  LYS548      0.0298
    149  CG        30.8070   30.1900   23.2030 C.3   548  LYS548      0.0038
    150  CD        30.0580   30.0630   24.5220 C.3   548  LYS548      0.0206
    151  CE        30.6150   28.9260   25.3870 C.3   548  LYS548      0.1093
    152  NZ        30.3490   27.5740   24.7850 N.3   548  LYS548     -0.1314
    153  N         35.4610   25.6550   19.8610 N.3   646  GLU646     -0.1231
    154  CA        34.5190   24.9240   20.7130 C.3   646  GLU646      0.1699
    155  C         34.9150   23.4490   20.6790 C.2   646  GLU646      0.2592
    156  O         34.6500   22.7570   19.7010 O.2   646  GLU646     -0.2718
    157  CB        33.0840   25.1050   20.1940 C.3   646  GLU646      0.0402
    158  CG        31.9750   24.6370   21.1490 C.3   646  GLU646      0.1161
    159  CD        31.8420   25.5190   22.3800 C.2   646  GLU646      0.3649
    160  OE1       32.5800   25.3010   23.3620 O.co2 646  GLU646     -0.2457
    161  OE2       31.0020   26.4450   22.3610 O.co2 646  GLU646     -0.2457
    162  N         35.5550   22.9730   21.7460 N.am  647  ALA647     -0.1966
    163  CA        36.0100   21.5840   21.8120 C.3   647  ALA647      0.1728
    164  C         34.9520   20.6040   21.3170 C.2   647  ALA647      0.2617
    165  O         35.2310   19.7300   20.4930 O.2   647  ALA647     -0.2715
    166  CB        36.4170   21.2310   23.2340 C.3   647  ALA647      0.0334
    167  N         33.7330   20.7560   21.8140 N.am  648  SER648     -0.1936
    168  CA        32.6590   19.8690   21.4090 C.3   648  SER648      0.2055
    169  C         31.3290   20.5850   21.3350 C.2   648  SER648      0.2644
    170  O         30.7380   20.7240   20.2620 O.2   648  SER648     -0.2714
    171  CB        32.5380   18.7080   22.4010 C.3   648  SER648      0.2130
    172  OG        31.4130   17.8900   22.1090 O.3   648  SER648     -0.2179
    173  N         30.8850   21.0600   22.4930 N.am  649  GLY649     -0.1939
    174  CA        29.5930   21.6970   22.5980 C.3   649  GLY649      0.2014
    175  C         28.6490   20.5570   22.9510 C.2   649  GLY649      0.2639
    176  O         28.8740   19.4210   22.5290 O.2   649  GLY649     -0.2714
    177  N         27.6260   20.8310   23.7520 N.am  650  THR650     -0.1950
    178  CA        26.6440   19.8080   24.1160 C.3   650  THR650      0.1897
    179  C         25.2530   20.4030   23.9690 C.2   650  THR650      0.2313
    180  O         24.2790   19.6880   23.7180 O.2   650  THR650     -0.2863
    181  CB        26.8300   19.2860   25.5580 C.3   650  THR650      0.1794
    182  OG1       26.9230   20.3870   26.4650 O.3   650  THR650     -0.2208
    183  CG2       28.0850   18.4280   25.6510 C.3   650  THR650      0.0378
@<TRIPOS>BOND
     1   147   146    2
     2   135   134    2
     3   156   155    2
     4   153   154    1
     5   146   145    1
     6   157   154    1
     7   157   158    1
     8   170   169    2
     9   165   164    2
    10   134   133    1
    11   134   144   am
    12   155   154    1
    13   155   162   am
    14   145   144    1
    15   145   148    1
    16   133   136    1
    17   133   132    1
    18   158   159    1
    19   164   163    1
    20   164   167   am
    21   169   168    1
    22   169   173   am
    23   168   167    1
    24   168   171    1
    25   136   137    1
    26   162   163    1
    27   138   137   ar
    28   138   140   ar
    29   163   166    1
    30   172   171    1
    31   119   120    2
    32   119   118    1
    33   148   149    1
    34   161   159   ar
    35   159   160   ar
    36   137   139   ar
    37   173   174    1
    38   176   175    2
    39   140   142   ar
    40   174   175    1
    41   127   126    2
    42   175   177   am
    43   124   125    1
    44   149   150    1
    45   117   118    1
    46   118   121    1
    47   180   179    2
    48   126   125    1
    49   177   178    1
    50   139   141   ar
    51   142   141   ar
    52   142   143    1
    53   179   178    1
    54   178   181    1
    55   125   128    1
    56   123   121    1
    57   128   129    1
    58   121   122    1
    59   150   151    1
    60   152   151    1
    61   107   106    1
    62   107   108    2
    63   110   109    1
    64   129   130    2
    65   129   131   am
    66   106   109    1
    67   106   105    1
    68   181   183    1
    69   181   182    1
    70    98    97    2
    71   109   111    1
    72   105    97   am
    73    97    96    1
    74    96    95    1
    75    96    99    1
    76    64    63    2
    77    63    65   am
    78    63    62    1
    79    40    39    1
    80    99   100    1
    81    62    59    1
    82   101   100   ar
    83   101   103   ar
    84   112   113    1
    85   100   102   ar
    86    41    39    1
    87   116   113    1
    88    57    55   ar
    89    61    60    2
    90    23    22    1
    91    23    24    1
    92   103   104   ar
    93    39    38    1
    94    59    60    1
    95    59    58    1
    96   113   114    1
    97    22    20   am
    98    60    66   am
    99    24    25    2
   100    24    26   am
   101   102   104   ar
   102    38    35    1
   103    55    56   ar
   104    55    54    1
   105    53    52    2
   106   114   115    2
   107    26    27    1
   108    58    52   am
   109    35    34    1
   110    35    36    1
   111    52    51    1
   112    83    82   ar
   113    72    74   ar
   114    72    71   ar
   115    20    19    1
   116    20    21    2
   117    66    67    1
   118    54    51    1
   119    74    76   ar
   120    27    30    1
   121    27    28    1
   122    19    18    1
   123    67    70    1
   124    67    68    1
   125    30    31    1
   126    37    36    2
   127    70    71    1
   128    32    31    1
   129    82    84   ar
   130    82    81    1
   131    51    50    1
   132    71    73   ar
   133    28    29    2
   134    76    75   ar
   135    31    33    1
   136    78    81    1
   137    78    77    1
   138    78    79    1
   139    18    12   am
   140    68    69    2
   141    50    44   am
   142    13    12    2
   143    73    75   ar
   144    12    11    1
   145    79    80    2
   146    44    45    2
   147    44    43    1
   148    14    11    1
   149    14    15    1
   150    11    10    1
   151    94    93   ar
   152    94    92   ar
   153    43    46    1
   154    43    42    1
   155    93    91   ar
   156    46    47    1
   157     9     7   ar
   158    15    16    2
   159    15    17   am
   160    92    90   ar
   161    48    47    2
   162    91    90   ar
   163    47    49   am
   164    85    86    1
   165     8     7   ar
   166     7     6    1
   167    90    89    1
   168     5     6    1
   169     5     2    1
   170     4     3    2
   171    86    89    1
   172    86    87    1
   173     3     2    1
   174     2     1    1
   175    87    88    2
