@<TRIPOS>MOLECULE
tmp/3bdkA00.pdb
 161 155 0 0 0
SMALL
GASTEIGER

@<TRIPOS>ATOM
      1  N         15.0590   -7.7120    4.2100 N.3     8  ARG8       -0.1245
      2  CA        14.9300   -6.2930    4.4950 C.3     8  ARG8        0.1563
      3  C         13.5420   -5.7870    4.1660 C.2     8  ARG8        0.2260
      4  O         13.0040   -6.1080    3.1090 O.2     8  ARG8       -0.2867
      5  CB        15.9810   -5.4790    3.7410 C.3     8  ARG8        0.0307
      6  CG        16.1330   -4.0620    4.2430 C.3     8  ARG8        0.0489
      7  CD        17.3820   -3.4490    3.6920 C.3     8  ARG8        0.2205
      8  NE        17.4940   -2.0190    3.9620 N.pl3   8  ARG8       -0.0865
      9  CZ        18.6060   -1.3220    3.7510 C.cat   8  ARG8        0.5346
     10  NH1       19.6740   -1.9390    3.2680 N.pl3   8  ARG8        0.1354
     11  NH2       18.6520   -0.0180    4.0220 N.pl3   8  ARG8        0.1354
     12  N         11.3860   -2.0520    4.1270 N.3    10  TYR10      -0.1241
     13  CA        11.5610   -0.5960    4.1840 C.3    10  TYR10       0.1605
     14  C         10.4490    0.1920    4.9020 C.2    10  TYR10       0.2264
     15  O         10.2420    1.3860    4.6290 O.2    10  TYR10      -0.2867
     16  CB        11.8200   -0.0340    2.7720 C.3    10  TYR10       0.0534
     17  CG        13.2540   -0.2240    2.3430 C.ar   10  TYR10      -0.0201
     18  CD1       13.7150   -1.4710    1.9070 C.ar   10  TYR10      -0.0009
     19  CD2       14.1640    0.8340    2.4050 C.ar   10  TYR10      -0.0009
     20  CE1       15.0480   -1.6530    1.5310 C.ar   10  TYR10       0.0417
     21  CE2       15.4940    0.6620    2.0310 C.ar   10  TYR10       0.0417
     22  CZ        15.9330   -0.5840    1.5970 C.ar   10  TYR10       0.1957
     23  OH        17.2560   -0.7540    1.2270 O.3    10  TYR10      -0.2866
     24  N         19.0550   -2.6730    9.7050 N.3    66  GLU66      -0.1231
     25  CA        19.9120   -2.3160    8.6020 C.3    66  GLU66       0.1699
     26  C         20.0410   -0.8310    8.5700 C.2    66  GLU66       0.2592
     27  O         19.2820   -0.1120    7.9010 O.2    66  GLU66      -0.2718
     28  CB        19.4470   -2.8320    7.2560 C.3    66  GLU66       0.0402
     29  CG        20.5280   -2.6570    6.1950 C.3    66  GLU66       0.1161
     30  CD        21.3740   -3.9030    5.9670 C.2    66  GLU66       0.3649
     31  OE1       21.1420   -4.9370    6.6280 O.co2  66  GLU66      -0.2457
     32  OE2       22.2610   -3.8600    5.0910 O.co2  66  GLU66      -0.2457
     33  N         21.0120   -0.4020    9.3610 N.am   67  SER67      -0.1952
     34  CA        21.6450    0.8800    9.2380 C.3    67  SER67       0.1924
     35  C         21.0000    1.9390   10.1030 C.2    67  SER67       0.2314
     36  O         19.8930    2.4050    9.8340 O.2    67  SER67      -0.2863
     37  CB        21.7520    1.3220    7.7740 C.3    67  SER67       0.2116
     38  OG        22.9210    2.0870    7.5680 O.3    67  SER67      -0.2180
     39  N         23.7330   -3.0620   11.6740 N.3   104  CYS104     -0.1235
     40  CA        24.5820   -2.8270   10.5070 C.3   104  CYS104      0.1677
     41  C         24.6880   -1.3080   10.2560 C.2   104  CYS104      0.2270
     42  O         23.8300   -0.5410   10.7020 O.2   104  CYS104     -0.2867
     43  CB        24.0270   -3.5840    9.2750 C.3   104  CYS104      0.0956
     44  SG        24.9030   -3.3240    7.6290 S.3   104  CYS104     -0.0801
     45  N         27.6060    1.6130    7.6950 N.3   106  ASN106     -0.1240
     46  CA        28.8580    1.7330    6.9140 C.3   106  ASN106      0.1653
     47  C         29.7640    2.8920    7.3190 C.2   106  ASN106      0.2266
     48  O         29.3840    3.7230    8.1360 O.2   106  ASN106     -0.2867
     49  CB        28.5700    1.8190    5.4110 C.3   106  ASN106      0.1155
     50  CG        28.2630    3.2220    4.9510 C.2   106  ASN106      0.2627
     51  OD1       29.0340    4.1470    5.1810 O.2   106  ASN106     -0.2716
     52  ND2       27.1340    3.3890    4.2790 N.am  106  ASN106     -0.0877
     53  N         26.7800    5.3660   -0.3940 N.3   112  ASP112     -0.1225
     54  CA        26.7770    4.0340    0.2230 C.3   112  ASP112      0.1805
     55  C         26.9300    2.8880   -0.7790 C.2   112  ASP112      0.2597
     56  O         27.0920    1.7180   -0.4020 O.2   112  ASP112     -0.2718
     57  CB        25.5190    3.8370    1.0420 C.3   112  ASP112      0.1424
     58  CG        25.3270    4.9230    2.0630 C.2   112  ASP112      0.3668
     59  OD1       24.1450    5.3110    2.2680 O.co2 112  ASP112     -0.2456
     60  OD2       26.3530    5.3870    2.6430 O.co2 112  ASP112     -0.2456
     61  N         26.8690    3.2390   -2.0520 N.am  113  TRP113     -0.1976
     62  CA        27.1450    2.3160   -3.1370 C.3   113  TRP113      0.1640
     63  C         27.1570    3.1290   -4.4240 C.2   113  TRP113      0.2290
     64  O         26.7000    4.2750   -4.4560 O.2   113  TRP113     -0.2864
     65  CB        26.0900    1.2030   -3.1990 C.3   113  TRP113      0.0576
     66  CG        24.6830    1.7200   -3.2650 C.ar  113  TRP113      0.0006
     67  CD1       23.8620    1.9840   -2.2170 C.ar  113  TRP113      0.0946
     68  CD2       23.9430    2.0630   -4.4460 C.ar  113  TRP113      0.0152
     69  NE1       22.6510    2.4580   -2.6620 N.ar  113  TRP113     -0.2442
     70  CE2       22.6730    2.5220   -4.0250 C.ar  113  TRP113      0.0810
     71  CE3       24.2280    2.0260   -5.8190 C.ar  113  TRP113      0.0012
     72  CZ2       21.6810    2.9330   -4.9270 C.ar  113  TRP113      0.0191
     73  CZ3       23.2330    2.4460   -6.7210 C.ar  113  TRP113      0.0001
     74  CH2       21.9820    2.8890   -6.2660 C.ar  113  TRP113      0.0015
     75  N         26.5380    2.3540   -8.7070 N.3   115  ARG115     -0.1245
     76  CA        26.3500    1.5050   -9.8580 C.3   115  ARG115      0.1563
     77  C         26.3650    2.4040  -11.0790 C.2   115  ARG115      0.2260
     78  O         26.0500    3.5860  -10.9740 O.2   115  ARG115     -0.2867
     79  CB        25.0310    0.7360   -9.7690 C.3   115  ARG115      0.0307
     80  CG        24.9270   -0.2580   -8.6040 C.3   115  ARG115      0.0489
     81  CD        26.0540   -1.3200   -8.6300 C.3   115  ARG115      0.2205
     82  NE        25.8730   -2.3190   -7.5850 N.pl3 115  ARG115     -0.0865
     83  CZ        26.5010   -2.3180   -6.4100 C.cat 115  ARG115      0.5346
     84  NH1       27.3890   -1.3710   -6.1160 N.pl3 115  ARG115      0.1354
     85  NH2       26.2380   -3.2750   -5.5240 N.pl3 115  ARG115      0.1354
     86  N         28.9240   -2.7920    7.3490 N.3   187  HIS187     -0.1241
     87  CA        28.7700   -3.1130    5.9350 C.3   187  HIS187      0.1621
     88  C         29.9930   -2.6770    5.1350 C.2   187  HIS187      0.2264
     89  O         30.3780   -1.5080    5.1590 O.2   187  HIS187     -0.2867
     90  CB        27.5100   -2.4530    5.3710 C.3   187  HIS187      0.0745
     91  CG        27.0330   -3.0610    4.0890 C.ar  187  HIS187      0.0817
     92  ND1       27.5340   -2.6930    2.8580 N.ar  187  HIS187     -0.2268
     93  CD2       26.1000   -4.0120    3.8460 C.ar  187  HIS187      0.1154
     94  CE1       26.9300   -3.3910    1.9130 C.ar  187  HIS187      0.1986
     95  NE2       26.0560   -4.1980    2.4850 N.ar  187  HIS187     -0.2212
     96  N         31.4720   -0.6230   -0.9070 N.3   190  ASP190     -0.1239
     97  CA        30.7260   -1.1770   -2.0300 C.3   190  ASP190      0.1674
     98  C         30.6230   -0.1730   -3.1740 C.2   190  ASP190      0.2266
     99  O         29.7470    0.6920   -3.1750 O.2   190  ASP190     -0.2867
    100  CB        29.3280   -1.6110   -1.5830 C.3   190  ASP190      0.1410
    101  CG        28.4350   -1.9900   -2.7480 C.2   190  ASP190      0.3668
    102  OD1       28.9630   -2.1940   -3.8620 O.co2 190  ASP190     -0.2456
    103  OD2       27.2060   -2.0850   -2.5500 O.co2 190  ASP190     -0.2456
    104  N         25.4040  -10.7270    4.4600 N.3   254  HIS254     -0.1241
    105  CA        24.8360  -10.4400    3.1480 C.3   254  HIS254      0.1621
    106  C         25.3210  -11.4430    2.1060 C.2   254  HIS254      0.2264
    107  O         26.4560  -11.3640    1.6360 O.2   254  HIS254     -0.2867
    108  CB        25.1870   -9.0170    2.7120 C.3   254  HIS254      0.0745
    109  CG        24.2450   -7.9760    3.2300 C.ar  254  HIS254      0.0817
    110  ND1       23.8140   -6.9140    2.4650 N.ar  254  HIS254     -0.2268
    111  CD2       23.6500   -7.8340    4.4390 C.ar  254  HIS254      0.1154
    112  CE1       22.9940   -6.1630    3.1790 C.ar  254  HIS254      0.1986
    113  NE2       22.8780   -6.6990    4.3800 N.ar  254  HIS254     -0.2212
    114  N         24.9290  -12.0910   -1.2500 N.3   256  ARG256     -0.1245
    115  CA        24.6180  -11.7420   -2.6310 C.3   256  ARG256      0.1563
    116  C         25.7320  -12.1820   -3.5750 C.2   256  ARG256      0.2260
    117  O         26.8890  -12.3050   -3.1710 O.2   256  ARG256     -0.2867
    118  CB        24.3820  -10.2360   -2.7620 C.3   256  ARG256      0.0307
    119  CG        24.6540   -9.6850   -4.1520 C.3   256  ARG256      0.0489
    120  CD        24.3360   -8.2000   -4.2290 C.3   256  ARG256      0.2205
    121  NE        24.9590   -7.4510   -3.1420 N.pl3 256  ARG256     -0.0865
    122  CZ        26.0290   -6.6760   -3.2860 C.cat 256  ARG256      0.5346
    123  NH1       26.6000   -6.5450   -4.4750 N.pl3 256  ARG256      0.1354
    124  NH2       26.5280   -6.0310   -2.2400 N.pl3 256  ARG256      0.1354
    125  N         20.7230  -10.4750   -0.1170 N.3   298  ASP298     -0.1225
    126  CA        20.7810   -9.1050   -0.6140 C.3   298  ASP298      0.1805
    127  C         20.1440   -8.9920   -1.9950 C.2   298  ASP298      0.2597
    128  O         19.3160   -9.8190   -2.3770 O.2   298  ASP298     -0.2718
    129  CB        22.2280   -8.6130   -0.6600 C.3   298  ASP298      0.1424
    130  CG        22.4030   -7.2570   -0.0050 C.2   298  ASP298      0.3668
    131  OD1       21.4340   -6.4690    0.0030 O.co2 298  ASP298     -0.2456
    132  OD2       23.5100   -6.9780    0.5020 O.co2 298  ASP298     -0.2456
    133  N         20.5380   -7.9640   -2.7400 N.am  299  HIS299     -0.1975
    134  CA        19.8240   -7.5780   -3.9510 C.3   299  HIS299      0.1656
    135  C         19.3790   -8.8030   -4.7430 C.2   299  HIS299      0.2291
    136  O         20.0100   -9.8580   -4.6790 O.2   299  HIS299     -0.2864
    137  CB        20.6990   -6.6770   -4.8250 C.3   299  HIS299      0.0771
    138  CG        21.3280   -5.5410   -4.0800 C.ar  299  HIS299      0.0820
    139  ND1       22.1540   -5.7300   -2.9930 N.ar  299  HIS299     -0.2267
    140  CD2       21.2520   -4.2020   -4.2670 C.ar  299  HIS299      0.1154
    141  CE1       22.5600   -4.5560   -2.5420 C.ar  299  HIS299      0.1986
    142  NE2       22.0270   -3.6130   -3.2970 N.ar  299  HIS299     -0.2212
    143  N         16.6540    0.1290   -5.7600 N.3   311  PRO311     -0.2116
    144  CA        17.7630   -0.6650   -6.2870 C.3   311  PRO311      0.1372
    145  C         17.4920   -2.1380   -6.6070 C.2   311  PRO311      0.2244
    146  O         16.9200   -2.4340   -7.6640 O.2   311  PRO311     -0.2868
    147  CB        18.8070   -0.4890   -5.1870 C.3   311  PRO311      0.0268
    148  CG        18.5440    1.0490   -4.7330 C.3   311  PRO311      0.0207
    149  CD        17.1860    1.4460   -5.3630 C.3   311  PRO311      0.0892
    150  N         15.6740   -4.3980   -4.8280 N.3   313  TYR313     -0.1241
    151  CA        14.8540   -4.7260   -3.6810 C.3   313  TYR313      0.1605
    152  C         13.4550   -5.2640   -3.9260 C.2   313  TYR313      0.2264
    153  O         12.7270   -5.5040   -2.9650 O.2   313  TYR313     -0.2867
    154  CB        14.8810   -3.5770   -2.6640 C.3   313  TYR313      0.0534
    155  CG        16.1510   -3.6100   -1.8310 C.ar  313  TYR313     -0.0201
    156  CD1       17.2490   -2.8230   -2.1650 C.ar  313  TYR313     -0.0009
    157  CD2       16.2630   -4.4650   -0.7350 C.ar  313  TYR313     -0.0009
    158  CE1       18.4090   -2.8700   -1.4200 C.ar  313  TYR313      0.0417
    159  CE2       17.4190   -4.5210    0.0130 C.ar  313  TYR313      0.0417
    160  CZ        18.4850   -3.7240   -0.3340 C.ar  313  TYR313      0.1957
    161  OH        19.6310   -3.7770    0.4100 O.3   313  TYR313     -0.2866
@<TRIPOS>BOND
     1    77    78    2
     2    77    76    1
     3    76    79    1
     4    76    75    1
     5    79    80    1
     6    81    80    1
     7    81    82    1
     8   146   145    2
     9    82    83    2
    10    73    74   ar
    11    73    71   ar
    12   145   144    1
    13    83    84    1
    14    83    85    1
    15   144   143    1
    16   144   147    1
    17    74    72   ar
    18    71    68   ar
    19   143   149    1
    20   149   148    1
    21   147   148    1
    22    72    70   ar
    23   150   151    1
    24   137   138    1
    25   137   134    1
    26   135   136    2
    27   135   134    1
    28   123   122    1
    29    64    63    2
    30    68    70   ar
    31    68    66   ar
    32    63    62    1
    33   140   138   ar
    34   140   142   ar
    35   120   119    1
    36   120   121    1
    37   119   118    1
    38   138   139   ar
    39    70    69   ar
    40   134   133    1
    41   152   151    1
    42   152   153    2
    43   102   101   ar
    44   151   154    1
    45   116   117    2
    46   116   115    1
    47   142   141   ar
    48   122   121    2
    49   122   124    1
    50    66    65    1
    51    66    67   ar
    52    65    62    1
    53    99    98    2
    54    98    97    1
    55    62    61    1
    56   139   141   ar
    57   118   115    1
    58   101   103   ar
    59   101   100    1
    60   133   127   am
    61   154   155    1
    62    69    67   ar
    63   115   114    1
    64   128   127    2
    65   156   155   ar
    66   156   158   ar
    67    61    55   am
    68    97   100    1
    69    97    96    1
    70   127   126    1
    71   155   157   ar
    72   158   160   ar
    73    55    56    2
    74    55    54    1
    75   157   159   ar
    76   129   126    1
    77   129   130    1
    78   126   125    1
    79    53    54    1
    80   160   159   ar
    81   160   161    1
    82   130   131   ar
    83   130   132   ar
    84    54    57    1
    85    57    58    1
    86    23    22    1
    87    20    22   ar
    88    20    18   ar
    89    22    21   ar
    90   107   106    2
    91    18    17   ar
    92    94    95   ar
    93    94    92   ar
    94    21    19   ar
    95    58    59   ar
    96    58    60   ar
    97   106   105    1
    98    17    19   ar
    99    17    16    1
   100   110   112   ar
   101   110   109   ar
   102    95    93   ar
   103   108   105    1
   104   108   109    1
   105    16    13    1
   106    92    91   ar
   107     4     3    2
   108   105   104    1
   109   112   113   ar
   110   109   111   ar
   111    10     9    1
   112     7     8    1
   113     7     6    1
   114     5     6    1
   115     5     2    1
   116     9     8    2
   117     9    11    1
   118    93    91   ar
   119    91    90    1
   120    12    13    1
   121     3     2    1
   122    13    14    1
   123     1     2    1
   124    52    50   am
   125   113   111   ar
   126    15    14    2
   127    50    51    2
   128    50    49    1
   129    32    30   ar
   130    88    89    2
   131    88    87    1
   132    90    87    1
   133    49    46    1
   134    87    86    1
   135    30    29    1
   136    30    31   ar
   137    29    28    1
   138    46    47    1
   139    46    45    1
   140    28    25    1
   141    47    48    2
   142    38    37    1
   143    44    43    1
   144    37    34    1
   145    27    26    2
   146    26    25    1
   147    26    33   am
   148    25    24    1
   149    34    33    1
   150    34    35    1
   151    43    40    1
   152    36    35    2
   153    41    40    1
   154    41    42    2
   155    40    39    1
