@<TRIPOS>MOLECULE
tmp/3bdlA01.pdb
 140 133 0 0 0
SMALL
GASTEIGER

@<TRIPOS>ATOM
      1  N         13.8880  -24.2960    0.2940 N.3    16  ASP16      -0.1239
      2  CA        13.9820  -25.6100    0.9260 C.3    16  ASP16       0.1674
      3  C         13.0670  -26.6600    0.3130 C.2    16  ASP16       0.2266
      4  O         12.9930  -27.7850    0.8110 O.2    16  ASP16      -0.2867
      5  CB        13.6570  -25.4830    2.4130 C.3    16  ASP16       0.1410
      6  CG        12.2270  -25.0440    2.6540 C.2    16  ASP16       0.3668
      7  OD1       11.7130  -24.2320    1.8560 O.co2  16  ASP16      -0.2456
      8  OD2       11.6180  -25.4970    3.6450 O.co2  16  ASP16      -0.2456
      9  N         10.5370  -31.5090    0.3910 N.3    31  HIS31      -0.1226
     10  CA        11.3710  -30.5910    1.1550 C.3    31  HIS31       0.1752
     11  C         12.7140  -31.2730    1.4110 C.2    31  HIS31       0.2595
     12  O         12.7940  -32.5030    1.4630 O.2    31  HIS31      -0.2718
     13  CB        10.7020  -30.2110    2.4870 C.3    31  HIS31       0.0759
     14  CG         9.5630  -29.2450    2.3380 C.ar   31  HIS31       0.0818
     15  ND1        8.3370  -29.6080    1.8250 N.ar   31  HIS31      -0.2268
     16  CD2        9.4760  -27.9210    2.6160 C.ar   31  HIS31       0.1154
     17  CE1        7.5430  -28.5510    1.7900 C.ar   31  HIS31       0.1986
     18  NE2        8.2100  -27.5140    2.2650 N.ar   31  HIS31      -0.2212
     19  N         13.7660  -30.4740    1.5490 N.am   32  LEU32      -0.1980
     20  CA        15.1070  -31.0010    1.7840 C.3    32  LEU32       0.1596
     21  C         15.2930  -31.3620    3.2530 C.2    32  LEU32       0.2287
     22  O         15.1260  -30.5270    4.1380 O.2    32  LEU32      -0.2864
     23  CB        16.1510  -29.9700    1.3450 C.3    32  LEU32       0.0297
     24  CG        16.0240  -29.5450   -0.1240 C.3    32  LEU32       0.0022
     25  CD1       17.0840  -28.5060   -0.4680 C.3    32  LEU32       0.0001
     26  CD2       16.1710  -30.7730   -1.0160 C.3    32  LEU32       0.0001
     27  N         16.5940  -32.1680    6.9630 N.3    34  SER34      -0.1202
     28  CA        17.4960  -31.5990    7.9550 C.3    34  SER34       0.2020
     29  C         18.0710  -30.2040    7.7200 C.2    34  SER34       0.2619
     30  O         19.1290  -29.8700    8.2550 O.2    34  SER34      -0.2717
     31  CB        18.6230  -32.5970    8.2440 C.3    34  SER34       0.2103
     32  OG        18.0770  -33.8130    8.7440 O.3    34  SER34      -0.2182
     33  N         17.3850  -29.3870    6.9270 N.am   35  ILE35      -0.1965
     34  CA        17.8420  -28.0140    6.7190 C.3    35  ILE35       0.1727
     35  C         16.6550  -27.0720    6.8020 C.2    35  ILE35       0.2616
     36  O         15.5070  -27.4900    6.6460 O.2    35  ILE35      -0.2715
     37  CB        18.5500  -27.7910    5.3510 C.3    35  ILE35       0.0290
     38  CG1       17.5770  -28.0310    4.1970 C.3    35  ILE35       0.0022
     39  CG2       19.7730  -28.6920    5.2380 C.3    35  ILE35       0.0023
     40  CD1       18.1250  -27.5920    2.8530 C.3    35  ILE35       0.0001
     41  N         16.9400  -25.8060    7.0840 N.am   36  ARG36      -0.1977
     42  CA        15.9090  -24.7800    7.1670 C.3    36  ARG36       0.1597
     43  C         16.3100  -23.6790    6.2060 C.2    36  ARG36       0.2287
     44  O         17.4730  -23.3090    6.1460 O.2    36  ARG36      -0.2864
     45  CB        15.8390  -24.1600    8.5630 C.3    36  ARG36       0.0334
     46  CG        15.3580  -25.0650    9.6570 C.3    36  ARG36       0.0492
     47  CD        15.0050  -24.2490   10.8960 C.3    36  ARG36       0.2205
     48  NE        14.4390  -25.1110   11.9180 N.pl3  36  ARG36      -0.0865
     49  CZ        15.1400  -25.6820   12.8880 C.cat  36  ARG36       0.5346
     50  NH1       16.4490  -25.4670   12.9840 N.pl3  36  ARG36       0.1354
     51  NH2       14.5340  -26.4970   13.7380 N.pl3  36  ARG36       0.1354
     52  N         14.8610  -17.5820    7.1700 N.3    39  ARG39      -0.1245
     53  CA        13.5530  -17.1010    7.6030 C.3    39  ARG39       0.1563
     54  C         13.7100  -15.8550    8.4570 C.2    39  ARG39       0.2260
     55  O         14.7540  -15.6440    9.0710 O.2    39  ARG39      -0.2867
     56  CB        12.8350  -18.1790    8.4190 C.3    39  ARG39       0.0307
     57  CG        12.3750  -19.3770    7.6020 C.3    39  ARG39       0.0489
     58  CD        11.8870  -20.4970    8.5090 C.3    39  ARG39       0.2205
     59  NE        11.3680  -21.6290    7.7470 N.pl3  39  ARG39      -0.0865
     60  CZ        11.2640  -22.8640    8.2280 C.cat  39  ARG39       0.5346
     61  NH1       11.6460  -23.1240    9.4710 N.pl3  39  ARG39       0.1354
     62  NH2       10.7760  -23.8360    7.4660 N.pl3  39  ARG39       0.1354
     63  N         12.3820  -38.7410    6.0690 N.3    83  TYR83      -0.1241
     64  CA        11.3760  -38.7020    7.1280 C.3    83  TYR83       0.1605
     65  C         10.2030  -37.8070    6.7430 C.2    83  TYR83       0.2264
     66  O         10.2840  -37.0310    5.7870 O.2    83  TYR83      -0.2867
     67  CB        11.9900  -38.2170    8.4590 C.3    83  TYR83       0.0534
     68  CG        12.6200  -36.8310    8.4110 C.ar   83  TYR83      -0.0201
     69  CD1       13.9760  -36.6660    8.1350 C.ar   83  TYR83      -0.0009
     70  CD2       11.8540  -35.6850    8.6440 C.ar   83  TYR83      -0.0009
     71  CE1       14.5620  -35.3890    8.0900 C.ar   83  TYR83       0.0417
     72  CE2       12.4280  -34.4060    8.6010 C.ar   83  TYR83       0.0417
     73  CZ        13.7790  -34.2680    8.3210 C.ar   83  TYR83       0.1957
     74  OH        14.3460  -33.0130    8.2400 O.3    83  TYR83      -0.2866
     75  N          7.2680  -35.1110    8.4170 N.3    85  ARG85      -0.1245
     76  CA         6.7810  -34.3230    9.5450 C.3    85  ARG85       0.1563
     77  C          5.2710  -34.1840    9.3540 C.2    85  ARG85       0.2260
     78  O          4.8150  -33.7050    8.3170 O.2    85  ARG85      -0.2867
     79  CB         7.4030  -32.9180    9.5580 C.3    85  ARG85       0.0307
     80  CG         8.9280  -32.8550    9.6690 C.3    85  ARG85       0.0489
     81  CD         9.4440  -33.5080   10.9470 C.3    85  ARG85       0.2205
     82  NE         8.9160  -32.9160   12.1780 N.pl3  85  ARG85      -0.0865
     83  CZ         9.2910  -31.7470   12.6910 C.cat  85  ARG85       0.5346
     84  NH1       10.2080  -31.0060   12.0840 N.pl3  85  ARG85       0.1354
     85  NH2        8.7670  -31.3300   13.8390 N.pl3  85  ARG85       0.1354
     86  N          4.3610  -28.9990    9.8760 N.3    88  SER88      -0.1203
     87  CA         5.5100  -28.1050    9.9260 C.3    88  SER88       0.2005
     88  C          5.3820  -27.1130   11.0780 C.2    88  SER88       0.2461
     89  O          4.2950  -26.6140   11.3580 O.2    88  SER88      -0.2732
     90  CB         5.6320  -27.3290    8.6140 C.3    88  SER88       0.2103
     91  OG         6.5490  -26.2530    8.7540 O.3    88  SER88      -0.2182
     92  N          6.4940  -26.8310   11.7720 N.am   89  PRO89      -0.2717
     93  CA         6.4720  -25.8830   12.8900 C.3    89  PRO89       0.1535
     94  C          6.7470  -24.4460   12.4350 C.2    89  PRO89       0.2598
     95  O          6.7450  -23.5260   13.2490 O.2    89  PRO89      -0.2715
     96  CB         7.5710  -26.4110   13.8050 C.3    89  PRO89       0.0310
     97  CG         8.5840  -26.9050   12.8230 C.3    89  PRO89       0.0237
     98  CD         7.7310  -27.6330   11.7910 C.3    89  PRO89       0.0939
     99  N          6.9960  -24.2610   11.1400 N.am   90  ALA90      -0.1978
    100  CA         7.2720  -22.9250   10.6000 C.3    90  ALA90       0.1597
    101  C          6.1130  -21.9910   10.9360 C.2    90  ALA90       0.2287
    102  O          4.9540  -22.4050   10.9190 O.2    90  ALA90      -0.2864
    103  CB         7.4600  -23.0000    9.0850 C.3    90  ALA90       0.0319
    104  N          5.1110  -32.4060    5.7840 N.3   100  ARG100     -0.1245
    105  CA         6.3440  -32.1660    5.0490 C.3   100  ARG100      0.1563
    106  C          7.0570  -33.4870    4.7970 C.2   100  ARG100      0.2260
    107  O          7.4210  -34.1880    5.7430 O.2   100  ARG100     -0.2867
    108  CB         7.2770  -31.2470    5.8500 C.3   100  ARG100      0.0307
    109  CG         6.7450  -29.8350    6.0840 C.3   100  ARG100      0.0489
    110  CD         7.1760  -28.8960    4.9800 C.3   100  ARG100      0.2205
    111  NE         6.6680  -27.5390    5.1600 N.pl3 100  ARG100     -0.0865
    112  CZ         5.4170  -27.1680    4.9110 C.cat 100  ARG100      0.5346
    113  NH1        4.5320  -28.0510    4.4660 N.pl3 100  ARG100      0.1354
    114  NH2        5.0510  -25.9060    5.0970 N.pl3 100  ARG100      0.1354
    115  N         10.2900  -34.9740    3.7720 N.3   102  CYS102     -0.1235
    116  CA        11.6750  -34.5210    3.7150 C.3   102  CYS102      0.1677
    117  C         12.6250  -35.5740    3.1640 C.2   102  CYS102      0.2270
    118  O         12.6950  -36.6980    3.6610 O.2   102  CYS102     -0.2867
    119  CB        12.0820  -34.0700    5.1140 C.3   102  CYS102      0.0956
    120  SG        10.8820  -32.8630    5.8000 S.3   102  CYS102     -0.0801
    121  N         19.5400  -28.3370   10.7060 N.3   125  ILE125     -0.1245
    122  CA        18.7210  -28.5150   11.8950 C.3   125  ILE125      0.1561
    123  C         19.5090  -29.3650   12.8930 C.2   125  ILE125      0.2260
    124  O         20.1490  -30.3450   12.5070 O.2   125  ILE125     -0.2867
    125  CB        17.3950  -29.2480   11.5370 C.3   125  ILE125      0.0252
    126  CG1       16.5590  -28.3700   10.5950 C.3   125  ILE125      0.0019
    127  CG2       16.6260  -29.6180   12.8040 C.3   125  ILE125      0.0019
    128  CD1       15.2740  -29.0250   10.1040 C.3   125  ILE125      0.0001
    129  N         19.4630  -31.7140   16.4030 N.3   127  TYR127     -0.1241
    130  CA        18.5170  -32.6050   17.0530 C.3   127  TYR127      0.1605
    131  C         18.8490  -32.8640   18.5150 C.2   127  TYR127      0.2264
    132  O         20.0060  -33.1020   18.8710 O.2   127  TYR127     -0.2867
    133  CB        18.4650  -33.9160   16.2630 C.3   127  TYR127      0.0534
    134  CG        17.9260  -33.7270   14.8570 C.ar  127  TYR127     -0.0201
    135  CD1       16.5500  -33.6580   14.6230 C.ar  127  TYR127     -0.0009
    136  CD2       18.7870  -33.5670   13.7710 C.ar  127  TYR127     -0.0009
    137  CE1       16.0430  -33.4320   13.3430 C.ar  127  TYR127      0.0417
    138  CE2       18.2910  -33.3360   12.4780 C.ar  127  TYR127      0.0417
    139  CZ        16.9160  -33.2700   12.2760 C.ar  127  TYR127      0.1957
    140  OH        16.4070  -33.0350   11.0200 O.3   127  TYR127     -0.2866
@<TRIPOS>BOND
     1    26    24    1
     2    25    24    1
     3    24    23    1
     4     1     2    1
     5     3     4    2
     6     3     2    1
     7     9    10    1
     8     2     5    1
     9    10    11    1
    10    10    13    1
    11    23    20    1
    12    11    12    2
    13    11    19   am
    14    19    20    1
    15    20    21    1
    16    17    15   ar
    17    17    18   ar
    18    15    14   ar
    19     7     6   ar
    20    18    16   ar
    21    14    13    1
    22    14    16   ar
    23     5     6    1
    24     6     8   ar
    25    40    38    1
    26   117   118    2
    27   117   116    1
    28    21    22    2
    29   116   115    1
    30   116   119    1
    31    38    37    1
    32   113   112    1
    33   106   105    1
    34   106   107    2
    35   112   114    1
    36   112   111    2
    37   110   111    1
    38   110   109    1
    39   105   104    1
    40   105   108    1
    41   119   120    1
    42    39    37    1
    43    37    34    1
    44    66    65    2
    45   108   109    1
    46    63    64    1
    47    44    43    2
    48    43    42    1
    49    36    35    2
    50    34    35    1
    51    34    33    1
    52    65    64    1
    53    35    41   am
    54    33    29   am
    55    27    28    1
    56    41    42    1
    57    64    67    1
    58    42    45    1
    59    52    53    1
    60    62    60    1
    61    57    56    1
    62    57    58    1
    63    53    56    1
    64    53    54    1
    65    29    28    1
    66    29    30    2
    67    59    60    2
    68    59    58    1
    69    28    31    1
    70    71    69   ar
    71    71    73   ar
    72    69    68   ar
    73    60    61    1
    74    74    73    1
    75    31    32    1
    76    78    77    2
    77    73    72   ar
    78    68    67    1
    79    68    70   ar
    80    75    76    1
    81    54    55    2
    82    45    46    1
    83    72    70   ar
    84    90    91    1
    85    90    87    1
    86   103   100    1
    87    77    76    1
    88    76    79    1
    89    79    80    1
    90    46    47    1
    91    80    81    1
    92    86    87    1
    93    87    88    1
    94   128   126    1
    95   126   125    1
    96   100   101    1
    97   100    99    1
    98   121   122    1
    99    47    48    1
   100   102   101    2
   101    81    82    1
   102   140   139    1
   103    88    89    2
   104    88    92   am
   105    99    94   am
   106   125   122    1
   107   125   127    1
   108    92    98    1
   109    92    93    1
   110    98    97    1
   111   122   123    1
   112    48    49    2
   113    84    83    1
   114    82    83    2
   115   139   138   ar
   116   139   137   ar
   117    94    93    1
   118    94    95    2
   119   138   136   ar
   120   124   123    2
   121    83    85    1
   122    97    96    1
   123    49    50    1
   124    49    51    1
   125    93    96    1
   126   137   135   ar
   127   136   134   ar
   128   135   134   ar
   129   134   133    1
   130   133   130    1
   131   129   130    1
   132   130   131    1
   133   131   132    2
