@<TRIPOS>MOLECULE
tmp/3bdmH00.pdb
 111 102 0 0 0
SMALL
GASTEIGER

@<TRIPOS>ATOM
      1  N         64.4730 -139.4730   44.4950 N.3     1  THR1       -0.1218
      2  CA        64.9030 -138.3250   45.3520 C.3     1  THR1        0.1862
      3  C         64.9370 -138.7500   46.8080 C.2     1  THR1        0.2287
      4  O         64.0820 -139.5080   47.2920 O.2     1  THR1       -0.2866
      5  CB        63.9340 -137.1200   45.2430 C.3     1  THR1        0.1770
      6  OG1       64.1400 -136.4600   43.9940 O.3     1  THR1       -0.2211
      7  CG2       64.1220 -136.1480   46.3680 C.3     1  THR1        0.0375
      8  N         70.0720 -136.6740   41.8930 N.3    19  ARG19      -0.1231
      9  CA        69.5330 -137.3340   40.7020 C.3    19  ARG19       0.1694
     10  C         68.0910 -136.9570   40.3550 C.2    19  ARG19       0.2593
     11  O         67.2020 -136.9620   41.2070 O.2    19  ARG19      -0.2718
     12  CB        69.6160 -138.8610   40.8340 C.3    19  ARG19       0.0321
     13  CG        68.9180 -139.6280   39.6960 C.3    19  ARG19       0.0489
     14  CD        68.9060 -141.1440   39.9160 C.3    19  ARG19       0.2205
     15  NE        70.2380 -141.7390   39.8090 N.pl3  19  ARG19      -0.0865
     16  CZ        70.4810 -143.0440   39.8720 C.cat  19  ARG19       0.5346
     17  NH1       69.4830 -143.8980   40.0450 N.pl3  19  ARG19       0.1354
     18  NH2       71.7210 -143.4970   39.7570 N.pl3  19  ARG19       0.1354
     19  N         67.8820 -136.6420   39.0820 N.am   20  SER20      -0.1938
     20  CA        66.5730 -136.2880   38.5520 C.3    20  SER20       0.2055
     21  C         66.2320 -137.3220   37.4840 C.2    20  SER20       0.2644
     22  O         67.1190 -137.7660   36.7540 O.2    20  SER20      -0.2714
     23  CB        66.6300 -134.9070   37.9250 C.3    20  SER20       0.2130
     24  OG        65.4370 -134.6660   37.2080 O.3    20  SER20      -0.2179
     25  N         64.9610 -137.7100   37.3760 N.am   21  THR21      -0.1936
     26  CA        64.5830 -138.7280   36.3840 C.3    21  THR21       0.2028
     27  C         63.2330 -138.5840   35.7060 C.2    21  THR21       0.2642
     28  O         62.3570 -137.8720   36.1690 O.2    21  THR21      -0.2714
     29  CB        64.5700 -140.1650   36.9900 C.3    21  THR21       0.1808
     30  OG1       63.5470 -140.2540   37.9900 O.3    21  THR21      -0.2208
     31  CG2       65.9030 -140.5140   37.6100 C.3    21  THR21       0.0379
     32  N         63.0870 -139.2960   34.5960 N.am   22  GLN22      -0.1976
     33  CA        61.8420 -139.3610   33.8290 C.3    22  GLN22       0.1601
     34  C         61.7220 -140.8430   33.5280 C.2    22  GLN22       0.2287
     35  O         62.4360 -141.3610   32.6700 O.2    22  GLN22      -0.2864
     36  CB        61.9530 -138.6420   32.4980 C.3    22  GLN22       0.0394
     37  CG        62.4960 -137.2610   32.5610 C.3    22  GLN22       0.0908
     38  CD        62.5100 -136.6240   31.1930 C.2    22  GLN22       0.2608
     39  OE1       61.7920 -135.6450   30.9350 O.2    22  GLN22      -0.2717
     40  NE2       63.3250 -137.1870   30.2890 N.am   22  GLN22      -0.0878
     41  N         67.5670 -137.9270   34.1170 N.3    27  ALA27      -0.1245
     42  CA        67.4830 -136.6630   33.3910 C.3    27  ALA27       0.1562
     43  C         68.6900 -135.7840   33.6930 C.2    27  ALA27       0.2260
     44  O         69.3680 -135.2930   32.7870 O.2    27  ALA27      -0.2867
     45  CB        66.2000 -135.9320   33.7680 C.3    27  ALA27       0.0290
     46  N         71.4330 -132.4830   39.7960 N.3    31  CYS31      -0.1235
     47  CA        70.6110 -131.2960   39.9110 C.3    31  CYS31       0.1677
     48  C         70.5930 -130.8800   41.3780 C.2    31  CYS31       0.2270
     49  O         70.9370 -131.6690   42.2530 O.2    31  CYS31      -0.2867
     50  CB        69.1930 -131.5630   39.3900 C.3    31  CYS31       0.0956
     51  SG        68.1210 -132.5080   40.4820 S.3    31  CYS31      -0.0801
     52  N         68.5440 -129.9730   44.6360 N.3    33  LYS33      -0.1245
     53  CA        67.2220 -130.0730   45.2370 C.3    33  LYS33       0.1561
     54  C         67.0830 -129.2230   46.4960 C.2    33  LYS33       0.2260
     55  O         66.0580 -129.2700   47.1920 O.2    33  LYS33      -0.2867
     56  CB        66.9170 -131.5440   45.5350 C.3    33  LYS33       0.0271
     57  CG        67.1010 -132.4420   44.3080 C.3    33  LYS33       0.0035
     58  CD        66.7390 -133.8970   44.5710 C.3    33  LYS33       0.0206
     59  CE        67.0370 -134.7640   43.3520 C.3    33  LYS33       0.1093
     60  NZ        66.6020 -136.1750   43.5550 N.3    33  LYS33      -0.1314
     61  N         63.4320 -130.1670   48.3480 N.3    45  GLY45      -0.1210
     62  CA        62.2170 -130.6100   47.6870 C.3    45  GLY45       0.1956
     63  C         62.2030 -131.8350   46.8080 C.2    45  GLY45       0.2612
     64  O         63.0790 -132.0320   45.9600 O.2    45  GLY45      -0.2717
     65  N         61.1650 -132.6460   47.0070 N.am   46  ALA46      -0.1965
     66  CA        60.9600 -133.8780   46.2460 C.3    46  ALA46       0.1728
     67  C         59.6560 -133.7770   45.4720 C.2    46  ALA46       0.2617
     68  O         58.8960 -132.8350   45.6650 O.2    46  ALA46      -0.2715
     69  CB        60.9030 -135.0560   47.1780 C.3    46  ALA46       0.0334
     70  N         59.3930 -134.7490   44.6070 N.am   47  GLY47      -0.1940
     71  CA        58.1740 -134.7200   43.8220 C.3    47  GLY47       0.2014
     72  C         58.4710 -134.2910   42.3950 C.2    47  GLY47       0.2640
     73  O         59.4160 -134.7990   41.7600 O.2    47  GLY47      -0.2714
     74  N         57.6690 -133.3590   41.8830 N.am   48  THR48      -0.1936
     75  CA        57.8540 -132.8640   40.5280 C.3    48  THR48       0.2028
     76  C         58.8170 -131.7000   40.6030 C.2    48  THR48       0.2642
     77  O         58.4600 -130.6070   41.0430 O.2    48  THR48      -0.2714
     78  CB        56.4930 -132.4120   39.9100 C.3    48  THR48       0.1808
     79  OG1       55.6360 -133.5490   39.7650 O.3    48  THR48      -0.2208
     80  CG2       56.6880 -131.7720   38.5400 C.3    48  THR48       0.0379
     81  N         60.0490 -131.9490   40.1760 N.am   49  ALA49      -0.1963
     82  CA        61.1150 -130.9470   40.2020 C.3    49  ALA49       0.1728
     83  C         60.6890 -129.5070   39.8190 C.2    49  ALA49       0.2616
     84  O         60.8960 -128.5550   40.5910 O.2    49  ALA49      -0.2715
     85  CB        62.2540 -131.4140   39.3180 C.3    49  ALA49       0.0334
     86  N         60.1030 -129.3340   38.6370 N.am   50  ALA50      -0.1977
     87  CA        59.6670 -128.0080   38.2190 C.3    50  ALA50       0.1597
     88  C         58.7090 -127.3770   39.2440 C.2    50  ALA50       0.2287
     89  O         58.6570 -126.1620   39.3760 O.2    50  ALA50      -0.2864
     90  CB        59.0030 -128.0880   36.8610 C.3    50  ALA50       0.0319
     91  N         58.6230 -127.9960   42.7450 N.3    52  THR52      -0.1218
     92  CA        59.2980 -127.6150   43.9710 C.3    52  THR52       0.1862
     93  C         60.0730 -126.3320   43.6970 C.2    52  THR52       0.2287
     94  O         60.0870 -125.4230   44.5240 O.2    52  THR52      -0.2866
     95  CB        60.2600 -128.7170   44.4660 C.3    52  THR52       0.1770
     96  OG1       61.3670 -128.8390   43.5670 O.3    52  THR52      -0.2211
     97  CG2       59.5310 -130.0430   44.5620 C.3    52  THR52       0.0375
     98  N         60.6770 -138.2070   49.6590 N.3   128  GLY128     -0.1210
     99  CA        61.2250 -138.6620   48.3940 C.3   128  GLY128      0.1956
    100  C         61.0840 -140.1550   48.2180 C.2   128  GLY128      0.2612
    101  O         60.5070 -140.8330   49.0730 O.2   128  GLY128     -0.2717
    102  N         61.5940 -140.6730   47.1050 N.am  129  SER129     -0.1952
    103  CA        61.5180 -142.1000   46.8630 C.3   129  SER129      0.1924
    104  C         62.4920 -142.8140   47.7910 C.2   129  SER129      0.2314
    105  O         62.2760 -143.9720   48.1460 O.2   129  SER129     -0.2863
    106  CB        61.8200 -142.4190   45.3970 C.3   129  SER129      0.2116
    107  OG        63.0340 -141.8350   44.9550 O.3   129  SER129     -0.2180
    108  N         65.6890 -144.3700   42.4400 N.3   168  GLY168     -0.1225
    109  CA        65.2720 -143.0290   42.0750 C.3   168  GLY168      0.1811
    110  C         66.2310 -141.9630   42.5590 C.2   168  GLY168      0.2280
    111  O         66.1120 -140.7880   42.2110 O.2   168  GLY168     -0.2866
@<TRIPOS>BOND
     1    40    38   am
     2    39    38    2
     3    38    37    1
     4    36    37    1
     5    36    33    1
     6    35    34    2
     7    44    43    2
     8    42    43    1
     9    42    45    1
    10    42    41    1
    11    34    33    1
    12    33    32    1
    13    32    27   am
    14    27    28    2
    15    27    26    1
    16    26    29    1
    17    26    25    1
    18    22    21    2
    19    90    87    1
    20    29    31    1
    21    29    30    1
    22    24    23    1
    23    25    21   am
    24    21    20    1
    25    23    20    1
    26    87    86    1
    27    87    88    1
    28    80    78    1
    29    20    19    1
    30    86    83   am
    31    19    10   am
    32    88    89    2
    33    85    82    1
    34    50    47    1
    35    50    51    1
    36    13    14    1
    37    13    12    1
    38    18    16    1
    39    79    78    1
    40    46    47    1
    41    15    16    2
    42    15    14    1
    43    83    82    1
    44    83    84    2
    45    16    17    1
    46    78    75    1
    47    47    48    1
    48    81    82    1
    49    81    76   am
    50    10     9    1
    51    10    11    2
    52    75    76    1
    53    75    74    1
    54    76    77    2
    55     9    12    1
    56     9     8    1
    57    48    49    2
    58    73    72    2
    59    74    72   am
    60   109   108    1
    61   109   110    1
    62   111   110    2
    63    72    71    1
    64    91    92    1
    65    59    60    1
    66    59    58    1
    67    96    95    1
    68    93    92    1
    69    93    94    2
    70    71    70    1
    71    92    95    1
    72     6     5    1
    73    57    58    1
    74    57    56    1
    75    95    97    1
    76     1     2    1
    77    70    67   am
    78    52    53    1
    79   107   106    1
    80    53    56    1
    81    53    54    1
    82     5     2    1
    83     5     7    1
    84     2     3    1
    85   106   103    1
    86    67    68    2
    87    67    66    1
    88    64    63    2
    89    66    65    1
    90    66    69    1
    91    54    55    2
    92     3     4    2
    93    63    65   am
    94    63    62    1
    95   103   102    1
    96   103   104    1
    97   102   100   am
    98    62    61    1
    99   104   105    2
   100   100    99    1
   101   100   101    2
   102    99    98    1
