@<TRIPOS>MOLECULE
tmp/3bdzB01.pdb
 82 73 0 0 0
SMALL
GASTEIGER

@<TRIPOS>ATOM
      1  N         41.6180   34.8010   10.5990 N.3    69  VAL69      -0.1231
      2  CA        40.4070   34.6440   11.4210 C.3    69  VAL69       0.1692
      3  C         39.2380   33.9370   10.7200 C.2    69  VAL69       0.2592
      4  O         38.5710   33.0890   11.3320 O.2    69  VAL69      -0.2718
      5  CB        39.9450   36.0050   12.0120 C.3    69  VAL69       0.0266
      6  CG1       39.4680   36.9530   10.9000 C.3    69  VAL69       0.0020
      7  CG2       38.8590   35.7690   13.0450 C.3    69  VAL69       0.0020
      8  N         38.9710   34.2740    9.4600 N.am   70  THR70      -0.1953
      9  CA        37.9160   33.5670    8.7120 C.3    70  THR70       0.1897
     10  C         38.6070   32.7410    7.6060 C.2    70  THR70       0.2313
     11  O         39.5290   33.2260    6.9230 O.2    70  THR70      -0.2863
     12  CB        36.8690   34.5130    8.0670 C.3    70  THR70       0.1794
     13  OG1       37.5210   35.3920    7.1370 O.3    70  THR70      -0.2208
     14  CG2       36.1260   35.3110    9.1650 C.3    70  THR70       0.0378
     15  N         35.9230   35.3980    4.6250 N.3    74  TYR74      -0.1241
     16  CA        34.5960   35.9690    4.4230 C.3    74  TYR74       0.1605
     17  C         34.6390   36.9130    3.2420 C.2    74  TYR74       0.2264
     18  O         35.6970   37.4450    2.8940 O.2    74  TYR74      -0.2867
     19  CB        34.1530   36.7620    5.6490 C.3    74  TYR74       0.0534
     20  CG        33.5180   35.9590    6.7480 C.ar   74  TYR74      -0.0201
     21  CD1       33.4120   34.5570    6.6690 C.ar   74  TYR74      -0.0009
     22  CD2       32.9810   36.6100    7.8760 C.ar   74  TYR74      -0.0009
     23  CE1       32.7820   33.8230    7.6910 C.ar   74  TYR74       0.0417
     24  CE2       32.3540   35.8960    8.8860 C.ar   74  TYR74       0.0417
     25  CZ        32.2580   34.5080    8.7940 C.ar   74  TYR74       0.1957
     26  OH        31.6470   33.8350    9.8130 O.3    74  TYR74      -0.2866
     27  N         38.7620   42.9190    7.9780 N.3    81  LEU81      -0.1245
     28  CA        37.8420   42.6890    9.0720 C.3    81  LEU81       0.1561
     29  C         38.4610   43.5280   10.2120 C.2    81  LEU81       0.2260
     30  O         39.5340   43.2140   10.7190 O.2    81  LEU81      -0.2867
     31  CB        37.7960   41.1860    9.4110 C.3    81  LEU81       0.0270
     32  CG        37.0150   40.3710    8.3580 C.3    81  LEU81       0.0019
     33  CD1       37.5230   38.9360    8.2710 C.3    81  LEU81       0.0001
     34  CD2       35.5180   40.4100    8.7050 C.3    81  LEU81       0.0001
     35  N         38.9860   42.0370   14.3870 N.3    84  ALA84      -0.1245
     36  CA        39.0380   40.5790   14.2760 C.3    84  ALA84       0.1562
     37  C         40.0850   40.0710   13.2880 C.2    84  ALA84       0.2260
     38  O         40.6450   39.0000   13.4650 O.2    84  ALA84      -0.2867
     39  CB        37.6510   40.0300   13.8750 C.3    84  ALA84       0.0290
     40  N         32.1710   44.8530   10.6950 N.3   227  ILE227     -0.1245
     41  CA        32.4590   43.9250   11.7700 C.3   227  ILE227      0.1561
     42  C         31.4350   44.0110   12.9100 C.2   227  ILE227      0.2260
     43  O         31.0990   43.0090   13.5340 O.2   227  ILE227     -0.2867
     44  CB        33.9040   44.1240   12.3030 C.3   227  ILE227      0.0252
     45  CG1       34.3020   42.9070   13.1410 C.3   227  ILE227      0.0019
     46  CG2       34.0110   45.3940   13.1520 C.3   227  ILE227      0.0019
     47  CD1       34.4210   41.6610   12.3170 C.3   227  ILE227      0.0001
     48  N         28.0000   42.5280   11.5270 N.3   230  LEU230     -0.1231
     49  CA        28.1960   41.0940   11.4460 C.3   230  LEU230      0.1693
     50  C         28.2710   40.4770   12.8480 C.2   230  LEU230      0.2592
     51  O         27.5620   39.5140   13.1570 O.2   230  LEU230     -0.2718
     52  CB        29.4780   40.8340   10.6410 C.3   230  LEU230      0.0284
     53  CG        29.9450   39.4420   10.2400 C.3   230  LEU230      0.0019
     54  CD1       29.1170   38.9300    9.0530 C.3   230  LEU230      0.0001
     55  CD2       31.4400   39.5430    9.8550 C.3   230  LEU230      0.0001
     56  N         29.1070   41.0200   13.7270 N.am  231  GLY231     -0.1957
     57  CA        29.1550   40.4400   15.0650 C.3   231  GLY231      0.1869
     58  C         27.8590   40.5840   15.8610 C.2   231  GLY231      0.2309
     59  O         27.4480   39.6870   16.6140 O.2   231  GLY231     -0.2863
     60  N         26.0780   35.4970   15.0320 N.3   235  ALA235     -0.1245
     61  CA        26.2760   34.5070   16.1040 C.3   235  ALA235      0.1562
     62  C         25.1750   34.6150   17.1550 C.2   235  ALA235      0.2260
     63  O         24.7090   33.6210   17.7110 O.2   235  ALA235     -0.2867
     64  CB        27.6720   34.7370   16.7800 C.3   235  ALA235      0.0290
     65  N         30.5150   29.8010   17.3010 N.3   278  ALA278     -0.1245
     66  CA        31.7820   29.9740   16.6230 C.3   278  ALA278      0.1562
     67  C         32.9320   29.0000   16.6070 C.2   278  ALA278      0.2260
     68  O         33.1860   28.2820   17.5610 O.2   278  ALA278     -0.2867
     69  CB        32.3410   31.3690   17.0200 C.3   278  ALA278      0.0290
     70  N         36.9650   29.6520   15.0140 N.3   280  VAL280     -0.1245
     71  CA        37.7600   30.7270   14.4210 C.3   280  VAL280      0.1561
     72  C         39.0860   30.2350   13.8580 C.2   280  VAL280      0.2260
     73  O         39.6080   29.2160   14.2860 O.2   280  VAL280     -0.2867
     74  CB        38.0020   31.8390   15.4810 C.3   280  VAL280      0.0252
     75  CG1       39.0370   31.4160   16.4880 C.3   280  VAL280      0.0019
     76  CG2       38.4300   33.0870   14.8130 C.3   280  VAL280      0.0019
     77  N         35.5710   38.3670   22.8710 N.3   340  CYS340     -0.1235
     78  CA        34.6320   38.9130   21.9160 C.3   340  CYS340      0.1677
     79  C         34.2040   40.2680   22.5240 C.2   340  CYS340      0.2270
     80  O         33.9590   40.3830   23.7220 O.2   340  CYS340     -0.2867
     81  CB        33.4700   37.9590   21.6910 C.3   340  CYS340      0.0956
     82  SG        31.9560   38.7710   21.0910 S.3   340  CYS340     -0.0801
@<TRIPOS>BOND
     1    18    17    2
     2    17    16    1
     3    16    15    1
     4    16    19    1
     5    19    20    1
     6    21    20   ar
     7    21    23   ar
     8    20    22   ar
     9    11    10    2
    10    13    12    1
    11    10     9    1
    12    23    25   ar
    13    22    24   ar
    14    27    28    1
    15    12     9    1
    16    12    14    1
    17    33    32    1
    18    32    34    1
    19    32    31    1
    20     9     8    1
    21    25    24   ar
    22    25    26    1
    23    54    53    1
    24    28    31    1
    25    28    29    1
    26     8     3   am
    27    55    53    1
    28    29    30    2
    29    53    52    1
    30     1     2    1
    31    52    49    1
    32    40    41    1
    33     3     4    2
    34     3     2    1
    35     6     5    1
    36     2     5    1
    37    49    48    1
    38    49    50    1
    39    41    44    1
    40    41    42    1
    41     5     7    1
    42    44    45    1
    43    44    46    1
    44    47    45    1
    45    50    51    2
    46    50    56   am
    47    42    43    2
    48    37    38    2
    49    37    36    1
    50    56    57    1
    51    72    73    2
    52    72    71    1
    53    39    36    1
    54    36    35    1
    55    71    70    1
    56    71    74    1
    57    76    74    1
    58    60    61    1
    59    57    58    1
    60    74    75    1
    61    58    59    2
    62    61    64    1
    63    61    62    1
    64    67    66    1
    65    67    68    2
    66    66    69    1
    67    66    65    1
    68    62    63    2
    69    82    81    1
    70    81    78    1
    71    78    79    1
    72    78    77    1
    73    79    80    2
