@<TRIPOS>MOLECULE
tmp/3be2A00.pdb
 198 186 0 0 0
SMALL
GASTEIGER

@<TRIPOS>ATOM
      1  N         44.8660   29.6150    3.5280 N.3    26  LEU26      -0.1231
      2  CA        43.6740   30.3590    3.1410 C.3    26  LEU26       0.1693
      3  C         43.8160   31.8260    3.5150 C.2    26  LEU26       0.2592
      4  O         43.1000   32.6800    2.9940 O.2    26  LEU26      -0.2718
      5  CB        42.4440   29.7860    3.8460 C.3    26  LEU26       0.0284
      6  CG        42.1290   28.3190    3.5590 C.3    26  LEU26       0.0019
      7  CD1       40.9650   27.8700    4.4250 C.3    26  LEU26       0.0001
      8  CD2       41.8040   28.1450    2.0850 C.3    26  LEU26       0.0001
      9  N         44.7320   32.1150    4.4300 N.am   27  GLY27      -0.1957
     10  CA        44.9320   33.4890    4.8470 C.3    27  GLY27       0.1869
     11  C         45.8670   33.6040    6.0280 C.2    27  GLY27       0.2309
     12  O         46.2450   32.6050    6.6350 O.2    27  GLY27      -0.2863
     13  N         47.7340   37.0010   14.2510 N.3    31  PHE31      -0.1241
     14  CA        47.5750   35.8160   15.0930 C.3    31  PHE31       0.1605
     15  C         48.3640   34.6130   14.5840 C.2    31  PHE31       0.2264
     16  O         48.8070   33.7710   15.3620 O.2    31  PHE31      -0.2867
     17  CB        46.1000   35.4270   15.1430 C.3    31  PHE31       0.0534
     18  CG        45.5370   35.0540   13.7980 C.ar   31  PHE31      -0.0203
     19  CD1       45.7320   33.7840   13.2740 C.ar   31  PHE31      -0.0042
     20  CD2       44.8770   35.9930   13.0280 C.ar   31  PHE31      -0.0042
     21  CE1       45.2860   33.4640   12.0090 C.ar   31  PHE31      -0.0003
     22  CE2       44.4260   35.6750   11.7550 C.ar   31  PHE31      -0.0003
     23  CZ        44.6340   34.4100   11.2480 C.ar   31  PHE31      -0.0000
     24  N         45.7470   30.7320    8.6100 N.3    34  VAL34      -0.1245
     25  CA        44.5480   29.9130    8.4690 C.3    34  VAL34       0.1561
     26  C         44.8410   28.9940    7.2950 C.2    34  VAL34       0.2260
     27  O         45.2290   29.4530    6.2220 O.2    34  VAL34      -0.2867
     28  CB        43.2950   30.7570    8.1600 C.3    34  VAL34       0.0252
     29  CG1       42.0730   29.8510    8.0410 C.3    34  VAL34       0.0019
     30  CG2       43.0810   31.7890    9.2680 C.3    34  VAL34       0.0019
     31  N         38.5320   24.4330    7.8810 N.3    49  ALA49      -0.1245
     32  CA        39.4260   25.5850    7.8720 C.3    49  ALA49       0.1562
     33  C         40.0080   25.6280    9.2800 C.2    49  ALA49       0.2260
     34  O         39.2840   25.4700   10.2630 O.2    49  ALA49      -0.2867
     35  CB        38.6610   26.8740    7.5660 C.3    49  ALA49       0.0290
     36  N         42.3560   27.8390   11.9970 N.3    51  LYS51      -0.1245
     37  CA        43.0290   29.0810   12.3550 C.3    51  LYS51       0.1561
     38  C         44.0560   28.6710   13.4000 C.2    51  LYS51       0.2260
     39  O         43.7010   28.1880   14.4790 O.2    51  LYS51      -0.2867
     40  CB        42.0280   30.0910   12.9310 C.3    51  LYS51       0.0271
     41  CG        42.6200   31.4810   13.1450 C.3    51  LYS51       0.0035
     42  CD        41.5540   32.4930   13.5740 C.3    51  LYS51       0.0206
     43  CE        42.1340   33.9070   13.6230 C.3    51  LYS51       0.1093
     44  NZ        41.1140   34.9590   13.9350 N.3    51  LYS51      -0.1314
     45  N         38.3330   34.3000   21.0900 N.3    68  GLU68      -0.1245
     46  CA        37.5190   34.0810   19.9010 C.3    68  GLU68       0.1567
     47  C         36.8810   32.6910   19.9400 C.2    68  GLU68       0.2260
     48  O         35.7140   32.5250   19.5970 O.2    68  GLU68      -0.2867
     49  CB        38.3670   34.2260   18.6370 C.3    68  GLU68       0.0388
     50  CG        37.6360   33.7860   17.3690 C.3    68  GLU68       0.1160
     51  CD        38.4350   34.0280   16.1060 C.2    68  GLU68       0.3649
     52  OE1       39.5870   34.5040   16.2000 O.co2  68  GLU68      -0.2457
     53  OE2       37.9070   33.7360   15.0140 O.co2  68  GLU68      -0.2457
     54  N         34.1160   32.6480   22.5060 N.3    71  ILE71      -0.1231
     55  CA        32.9880   33.4570   22.0520 C.3    71  ILE71       0.1692
     56  C         32.1630   32.6600   21.0410 C.2    71  ILE71       0.2591
     57  O         30.9330   32.6450   21.1030 O.2    71  ILE71      -0.2718
     58  CB        33.4660   34.7750   21.4230 C.3    71  ILE71       0.0266
     59  CG1       34.0660   35.6720   22.5110 C.3    71  ILE71       0.0019
     60  CG2       32.2970   35.4850   20.7510 C.3    71  ILE71       0.0020
     61  CD1       34.5920   36.9980   21.9960 C.3    71  ILE71       0.0001
     62  N         32.8450   31.9840   20.1230 N.am   72  LEU72      -0.1980
     63  CA        32.1610   31.1610   19.1280 C.3    72  LEU72       0.1596
     64  C         31.3650   30.0680   19.8300 C.2    72  LEU72       0.2287
     65  O         30.2370   29.7620   19.4460 O.2    72  LEU72      -0.2864
     66  CB        33.1760   30.5410   18.1650 C.3    72  LEU72       0.0297
     67  CG        33.7060   31.5520   17.1450 C.3    72  LEU72       0.0022
     68  CD1       34.8080   30.9450   16.3000 C.3    72  LEU72       0.0001
     69  CD2       32.5430   32.0050   16.2700 C.3    72  LEU72       0.0001
     70  N         28.3400   31.8000   21.5420 N.3    75  ILE75      -0.1245
     71  CA        27.3080   32.1810   20.5830 C.3    75  ILE75       0.1561
     72  C         26.4070   30.9990   20.2390 C.2    75  ILE75       0.2260
     73  O         25.1880   31.1170   20.2560 O.2    75  ILE75      -0.2867
     74  CB        27.9220   32.7380   19.2930 C.3    75  ILE75       0.0252
     75  CG1       28.5890   34.0830   19.5780 C.3    75  ILE75       0.0019
     76  CG2       26.8430   32.8910   18.2230 C.3    75  ILE75       0.0019
     77  CD1       29.3410   34.6420   18.3940 C.3    75  ILE75       0.0001
     78  N         25.9740   31.1630   10.3940 N.3    81  VAL81      -0.1231
     79  CA        27.1170   31.7080   11.1350 C.3    81  VAL81       0.1692
     80  C         28.1630   30.6100   10.9660 C.2    81  VAL81       0.2591
     81  O         27.8940   29.4560   11.2920 O.2    81  VAL81      -0.2718
     82  CB        26.7950   31.9010   12.6270 C.3    81  VAL81       0.0266
     83  CG1       28.0560   32.3050   13.3920 C.3    81  VAL81       0.0020
     84  CG2       25.7210   32.9700   12.7800 C.3    81  VAL81       0.0020
     85  N         29.3370   30.9450   10.4310 N.am   82  VAL82      -0.1980
     86  CA        30.3630   29.9240   10.1940 C.3    82  VAL82       0.1595
     87  C         30.4180   28.9290   11.3630 C.2    82  VAL82       0.2287
     88  O         30.6320   29.3090   12.5140 O.2    82  VAL82      -0.2864
     89  CB        31.7460   30.5890    9.9140 C.3    82  VAL82       0.0276
     90  CG1       32.2580   31.2910   11.1530 C.3    82  VAL82       0.0022
     91  CG2       32.7300   29.5520    9.3930 C.3    82  VAL82       0.0022
     92  N         41.7940   26.6180   15.9690 N.3    97  VAL97      -0.1245
     93  CA        40.3370   26.7540   15.9700 C.3    97  VAL97       0.1561
     94  C         39.8520   26.2140   14.6270 C.2    97  VAL97       0.2260
     95  O         40.2330   26.7250   13.5720 O.2    97  VAL97      -0.2867
     96  CB        39.9120   28.2300   16.1200 C.3    97  VAL97       0.0252
     97  CG1       38.3990   28.3460   16.0190 C.3    97  VAL97       0.0019
     98  CG2       40.3880   28.7700   17.4580 C.3    97  VAL97       0.0019
     99  N         36.8470   25.2850   11.8610 N.3    99  THR99      -0.1203
    100  CA        35.4880   25.5560   11.3870 C.3    99  THR99       0.1994
    101  C         35.2040   24.7720   10.1150 C.2    99  THR99       0.2618
    102  O         36.1020   24.1650    9.5300 O.2    99  THR99      -0.2717
    103  CB        35.2640   27.0480   11.0500 C.3    99  THR99       0.1784
    104  OG1       35.9950   27.3930    9.8640 O.3    99  THR99      -0.2211
    105  CG2       35.7210   27.9330   12.2000 C.3    99  THR99       0.0376
    106  N         33.9480   24.7980    9.6880 N.am  100  GLU100     -0.1965
    107  CA        33.5480   24.1250    8.4620 C.3   100  GLU100      0.1733
    108  C         34.2550   24.8520    7.3210 C.2   100  GLU100      0.2616
    109  O         34.7070   25.9840    7.4860 O.2   100  GLU100     -0.2715
    110  CB        32.0330   24.2300    8.2790 C.3   100  GLU100      0.0429
    111  CG        31.5520   25.6630    8.0960 C.3   100  GLU100      0.1163
    112  CD        30.0490   25.7660    7.9290 C.2   100  GLU100      0.3649
    113  OE1       29.4840   25.0040    7.1140 O.co2 100  GLU100     -0.2457
    114  OE2       29.4320   26.6220    8.5980 O.co2 100  GLU100     -0.2457
    115  N         34.3570   24.1990    6.1690 N.am  101  PHE101     -0.1960
    116  CA        35.0020   24.7970    5.0080 C.3   101  PHE101      0.1771
    117  C         33.9310   25.1780    3.9920 C.2   101  PHE101      0.2619
    118  O         33.0610   24.3710    3.6680 O.2   101  PHE101     -0.2715
    119  CB        35.9880   23.8040    4.3800 C.3   101  PHE101      0.0574
    120  CG        36.6510   24.3080    3.1250 C.ar  101  PHE101     -0.0200
    121  CD1       37.5700   25.3450    3.1760 C.ar  101  PHE101     -0.0042
    122  CD2       36.3580   23.7380    1.8950 C.ar  101  PHE101     -0.0042
    123  CE1       38.1880   25.8060    2.0200 C.ar  101  PHE101     -0.0003
    124  CE2       36.9710   24.1910    0.7360 C.ar  101  PHE101     -0.0003
    125  CZ        37.8850   25.2250    0.7990 C.ar  101  PHE101     -0.0000
    126  N         33.9940   26.4170    3.5140 N.am  102  CYS102     -0.1968
    127  CA        33.0520   26.9330    2.5290 C.3   102  CYS102      0.1712
    128  C         33.8340   27.0570    1.2270 C.2   102  CYS102      0.2296
    129  O         34.6090   27.9950    1.0330 O.2   102  CYS102     -0.2864
    130  CB        32.5190   28.2910    2.9950 C.3   102  CYS102      0.0983
    131  SG        31.7430   28.2040    4.6410 S.3   102  CYS102     -0.0798
    132  N         34.2890   30.4550   -1.1960 N.3   105  GLY105     -0.1225
    133  CA        34.9550   31.6660   -0.7540 C.3   105  GLY105      0.1811
    134  C         34.0360   32.8060   -0.3630 C.2   105  GLY105      0.2280
    135  O         32.8420   32.6070   -0.1430 O.2   105  GLY105     -0.2866
    136  N         22.5920   36.4440   15.8000 N.3   152  LEU152     -0.1245
    137  CA        23.6580   37.0670   16.5770 C.3   152  LEU152      0.1561
    138  C         23.0950   38.1400   17.5070 C.2   152  LEU152      0.2260
    139  O         23.5370   38.2760   18.6480 O.2   152  LEU152     -0.2867
    140  CB        24.7120   37.6720   15.6440 C.3   152  LEU152      0.0270
    141  CG        25.5640   36.6260   14.9220 C.3   152  LEU152      0.0019
    142  CD1       26.5460   37.3080   13.9820 C.3   152  LEU152      0.0001
    143  CD2       26.3100   35.7850   15.9610 C.3   152  LEU152      0.0001
    144  N         28.1260   42.7610   15.4250 N.3   159  HIS159     -0.1241
    145  CA        29.1820   42.3330   14.5100 C.3   159  HIS159      0.1621
    146  C         30.2820   43.3720   14.3050 C.2   159  HIS159      0.2264
    147  O         31.4670   43.0690   14.4640 O.2   159  HIS159     -0.2867
    148  CB        28.5780   41.9240   13.1620 C.3   159  HIS159      0.0745
    149  CG        29.5390   41.2000   12.2730 C.ar  159  HIS159      0.0817
    150  ND1       30.6120   41.8230   11.6750 N.ar  159  HIS159     -0.2268
    151  CD2       29.6130   39.8940   11.9160 C.ar  159  HIS159      0.1154
    152  CE1       31.3070   40.9330   10.9860 C.ar  159  HIS159      0.1986
    153  NE2       30.7220   39.7560   11.1170 N.ar  159  HIS159     -0.2212
    154  N         30.8410   33.9640    3.6520 N.3   168  LEU168     -0.1245
    155  CA        31.3570   32.8610    2.8470 C.3   168  LEU168      0.1561
    156  C         30.2140   32.0790    2.2320 C.2   168  LEU168      0.2260
    157  O         29.1190   32.0220    2.7940 O.2   168  LEU168     -0.2867
    158  CB        32.2110   31.9150    3.6960 C.3   168  LEU168      0.0270
    159  CG        33.5480   32.4510    4.2020 C.3   168  LEU168      0.0019
    160  CD1       34.1910   31.4310    5.1410 C.3   168  LEU168      0.0001
    161  CD2       34.4580   32.7420    3.0320 C.3   168  LEU168      0.0001
    162  N         28.0580   33.8700    7.9270 N.3   177  ILE177     -0.1231
    163  CA        28.5970   35.1320    8.4140 C.3   177  ILE177      0.1692
    164  C         29.8850   34.8010    9.1620 C.2   177  ILE177      0.2592
    165  O         29.9220   33.8540    9.9570 O.2   177  ILE177     -0.2718
    166  CB        27.6350   35.8190    9.4040 C.3   177  ILE177      0.0266
    167  CG1       26.3610   36.2530    8.6820 C.3   177  ILE177      0.0019
    168  CG2       28.3100   37.0300   10.0350 C.3   177  ILE177      0.0020
    169  CD1       25.3300   36.8520    9.6160 C.3   177  ILE177      0.0001
    170  N         30.9310   35.5820    8.9040 N.am  178  CYS178     -0.1956
    171  CA        32.2290   35.3990    9.5460 C.3   178  CYS178      0.1843
    172  C         32.7520   36.7550    9.9980 C.2   178  CYS178      0.2625
    173  O         32.1300   37.7870    9.7730 O.2   178  CYS178     -0.2714
    174  CB        33.2590   34.8440    8.5550 C.3   178  CYS178      0.0997
    175  SG        32.8220   33.3270    7.6940 S.3   178  CYS178     -0.0797
    176  N         33.9110   36.7290   10.6410 N.am  179  ASP179     -0.1957
    177  CA        34.6040   37.9390   11.0660 C.3   179  ASP179      0.1840
    178  C         36.0560   37.5160   11.0770 C.2   179  ASP179      0.2622
    179  O         36.5300   36.9000   12.0280 O.2   179  ASP179     -0.2715
    180  CB        34.1970   38.4060   12.4600 C.3   179  ASP179      0.1450
    181  CG        34.8860   39.7060   12.8470 C.2   179  ASP179      0.3671
    182  OD1       34.5450   40.2960   13.8910 O.co2 179  ASP179     -0.2456
    183  OD2       35.7820   40.1410   12.0910 O.co2 179  ASP179     -0.2456
    184  N         36.7520   37.8280    9.9940 N.am  180  PHE180     -0.1960
    185  CA        38.1450   37.4460    9.8600 C.3   180  PHE180      0.1771
    186  C         39.0990   38.3280   10.6560 C.2   180  PHE180      0.2620
    187  O         40.2870   38.0220   10.7710 O.2   180  PHE180     -0.2715
    188  CB        38.5070   37.4410    8.3780 C.3   180  PHE180      0.0574
    189  CG        37.6360   36.5290    7.5570 C.ar  180  PHE180     -0.0200
    190  CD1       36.9900   36.9900    6.4220 C.ar  180  PHE180     -0.0042
    191  CD2       37.4590   35.2060    7.9300 C.ar  180  PHE180     -0.0042
    192  CE1       36.1800   36.1480    5.6720 C.ar  180  PHE180     -0.0003
    193  CE2       36.6540   34.3590    7.1860 C.ar  180  PHE180     -0.0003
    194  CZ        36.0130   34.8290    6.0560 C.ar  180  PHE180     -0.0000
    195  N         38.5710   39.4100   11.2210 N.am  181  GLY181     -0.1954
    196  CA        39.3970   40.3150   12.0030 C.3   181  GLY181      0.1869
    197  C         40.2640   41.1990   11.1290 C.2   181  GLY181      0.2309
    198  O         39.9030   41.5050    9.9910 O.2   181  GLY181     -0.2863
@<TRIPOS>BOND
     1   132   133    1
     2   133   134    1
     3   134   135    2
     4   124   125   ar
     5   124   122   ar
     6   125   123   ar
     7   129   128    2
     8   128   127    1
     9   122   120   ar
    10   123   121   ar
    11     8     6    1
    12   156   157    2
    13   156   155    1
    14   127   130    1
    15   127   126    1
    16   155   154    1
    17   155   158    1
    18     4     3    2
    19   130   131    1
    20   161   159    1
    21   120   121   ar
    22   120   119    1
    23     2     3    1
    24     2     1    1
    25     2     5    1
    26   126   117   am
    27     3     9   am
    28     6     5    1
    29     6     7    1
    30   118   117    2
    31   158   159    1
    32   117   116    1
    33   159   160    1
    34   119   116    1
    35     9    10    1
    36    10    11    1
    37   116   115    1
    38   192   194   ar
    39   192   190   ar
    40    11    12    2
    41   194   193   ar
    42   115   108   am
    43    27    26    2
    44   190   189   ar
    45   113   112   ar
    46   193   191   ar
    47    26    25    1
    48   108   109    2
    49   108   107    1
    50   189   191   ar
    51   189   188    1
    52    35    32    1
    53   175   174    1
    54    32    31    1
    55    32    33    1
    56   162   163    1
    57   112   111    1
    58   112   114   ar
    59    29    28    1
    60   111   110    1
    61    28    25    1
    62    28    30    1
    63   110   107    1
    64   188   185    1
    65   163   164    1
    66   163   166    1
    67   107   106    1
    68    25    24    1
    69   174   171    1
    70   167   166    1
    71   167   169    1
    72   170   164   am
    73   170   171    1
    74   164   165    2
    75    33    34    2
    76    91    89    1
    77   166   168    1
    78   102   101    2
    79   171   172    1
    80   106   101   am
    81   173   172    2
    82   185   184    1
    83   185   186    1
    84   104   103    1
    85    89    86    1
    86    89    90    1
    87   198   197    2
    88   184   178   am
    89   172   176   am
    90   101   100    1
    91    86    85    1
    92    86    87    1
    93    78    79    1
    94    85    80   am
    95   176   177    1
    96   186   187    2
    97   186   195   am
    98    80    79    1
    99    80    81    2
   100   152   153   ar
   101   152   150   ar
   102   103   100    1
   103   103   105    1
   104   177   178    1
   105   177   180    1
   106   178   179    2
   107   153   151   ar
   108   197   196    1
   109    79    82    1
   110   195   196    1
   111    23    22   ar
   112    23    21   ar
   113    87    88    2
   114   100    99    1
   115   150   149   ar
   116    22    20   ar
   117   151   149   ar
   118    36    37    1
   119    21    19   ar
   120   183   181   ar
   121   149   148    1
   122    37    40    1
   123    37    38    1
   124   180   181    1
   125    82    84    1
   126    82    83    1
   127   181   182   ar
   128    40    41    1
   129    20    18   ar
   130    41    42    1
   131   148   145    1
   132    19    18   ar
   133    38    39    2
   134    95    94    2
   135    42    43    1
   136    43    44    1
   137    18    17    1
   138   142   141    1
   139    13    14    1
   140   146   147    2
   141   146   145    1
   142   145   144    1
   143    15    14    1
   144    15    16    2
   145    94    93    1
   146   141   140    1
   147   141   143    1
   148    53    51   ar
   149    14    17    1
   150   140   137    1
   151   136   137    1
   152    92    93    1
   153    93    96    1
   154    97    96    1
   155    51    52   ar
   156    51    50    1
   157    96    98    1
   158    69    67    1
   159    68    67    1
   160   137   138    1
   161    67    66    1
   162    50    49    1
   163   138   139    2
   164    66    63    1
   165    76    74    1
   166    77    75    1
   167    49    46    1
   168    63    64    1
   169    63    62    1
   170    74    75    1
   171    74    71    1
   172    65    64    2
   173    48    47    2
   174    46    47    1
   175    46    45    1
   176    62    56   am
   177    72    73    2
   178    72    71    1
   179    71    70    1
   180    60    58    1
   181    56    57    2
   182    56    55    1
   183    58    55    1
   184    58    59    1
   185    61    59    1
   186    55    54    1
