@<TRIPOS>MOLECULE
tmp/3be7A00.pdb
 158 148 0 0 0
SMALL
GASTEIGER

@<TRIPOS>ATOM
      1  N         36.7520   32.6230  -40.9710 N.3    60  HIS60      -0.1241
      2  CA        37.3150   31.9650  -39.7940 C.3    60  HIS60       0.1621
      3  C         36.3940   32.1770  -38.5880 C.2    60  HIS60       0.2264
      4  O         36.5880   33.1120  -37.8080 O.2    60  HIS60      -0.2867
      5  CB        38.7230   32.5130  -39.4940 C.3    60  HIS60       0.0745
      6  CG        39.5660   31.5990  -38.6550 C.ar   60  HIS60       0.0817
      7  ND1       40.6710   30.9400  -39.1500 N.ar   60  HIS60      -0.2268
      8  CD2       39.4630   31.2320  -37.3550 C.ar   60  HIS60       0.1154
      9  CE1       41.2130   30.2090  -38.1920 C.ar   60  HIS60       0.1986
     10  NE2       40.4980   30.3670  -37.0930 N.ar   60  HIS60      -0.2212
     11  N         34.1250   29.8000  -35.3610 N.3    62  HIS62      -0.1241
     12  CA        33.8320   28.5400  -34.6800 C.3    62  HIS62       0.1621
     13  C         32.4660   28.6170  -33.9960 C.2    62  HIS62       0.2264
     14  O         32.3750   28.9090  -32.8020 O.2    62  HIS62      -0.2867
     15  CB        34.9040   28.2260  -33.6310 C.3    62  HIS62       0.0745
     16  CG        36.2350   27.8550  -34.2020 C.ar   62  HIS62       0.0817
     17  ND1       36.5210   26.5870  -34.6590 N.ar   62  HIS62      -0.2268
     18  CD2       37.3660   28.5800  -34.3690 C.ar   62  HIS62       0.1154
     19  CE1       37.7680   26.5480  -35.0920 C.ar   62  HIS62       0.1986
     20  NE2       38.3030   27.7440  -34.9280 N.ar   62  HIS62      -0.2212
     21  N         48.5290   21.7070  -32.4140 N.3   140  HIS140     -0.1241
     22  CA        47.5980   22.7460  -31.9710 C.3   140  HIS140      0.1621
     23  C         46.1350   22.2840  -32.0020 C.2   140  HIS140      0.2264
     24  O         45.3440   22.6380  -31.1210 O.2   140  HIS140     -0.2867
     25  CB        47.8000   24.0270  -32.7940 C.3   140  HIS140      0.0745
     26  CG        46.7050   25.0330  -32.6280 C.ar  140  HIS140      0.0817
     27  ND1       46.4370   25.6490  -31.4250 N.ar  140  HIS140     -0.2268
     28  CD2       45.8040   25.5240  -33.5120 C.ar  140  HIS140      0.1154
     29  CE1       45.4190   26.4780  -31.5740 C.ar  140  HIS140      0.1986
     30  NE2       45.0180   26.4220  -32.8320 N.ar  140  HIS140     -0.2212
     31  N         40.6150   22.0010  -42.9930 N.3   180  LYS180     -0.1245
     32  CA        41.5590   22.7760  -42.1880 C.3   180  LYS180      0.1561
     33  C         42.6360   21.8580  -41.6110 C.2   180  LYS180      0.2260
     34  O         42.3340   20.7890  -41.0720 O.2   180  LYS180     -0.2867
     35  CB        40.8270   23.5600  -41.0860 C.3   180  LYS180      0.0271
     36  CG        41.6250   23.7960  -39.8020 C.3   180  LYS180      0.0035
     37  CD        41.9290   25.2620  -39.5460 C.3   180  LYS180      0.0206
     38  CE        42.6130   25.4460  -38.1900 C.3   180  LYS180      0.1093
     39  NZ        41.6500   25.4480  -37.0460 N.3   180  LYS180     -0.1314
     40  N         48.1390   29.7100  -30.2570 N.3   187  VAL187     -0.1231
     41  CA        47.9720   30.5080  -29.0410 C.3   187  VAL187      0.1692
     42  C         47.1720   29.7490  -27.9750 C.2   187  VAL187      0.2591
     43  O         47.6160   29.6290  -26.8340 O.2   187  VAL187     -0.2718
     44  CB        47.3250   31.8870  -29.3660 C.3   187  VAL187      0.0266
     45  CG1       46.9280   32.6400  -28.0980 C.3   187  VAL187      0.0020
     46  CG2       48.2720   32.7290  -30.2030 C.3   187  VAL187      0.0020
     47  N         46.0170   29.2120  -28.3630 N.am  188  MET188     -0.1979
     48  CA        44.9960   28.7720  -27.4070 C.3   188  MET188      0.1605
     49  C         45.1860   27.3360  -26.8890 C.2   188  MET188      0.2287
     50  O         44.4870   26.9060  -25.9640 O.2   188  MET188     -0.2864
     51  CB        43.5860   28.9560  -27.9940 C.3   188  MET188      0.0413
     52  CG        43.1980   30.4090  -28.3190 C.3   188  MET188      0.0598
     53  SD        43.1980   31.5320  -26.9030 S.3   188  MET188     -0.1393
     54  CE        41.6930   31.0380  -26.0730 C.3   188  MET188      0.0692
     55  N         46.1560   26.8200  -40.5160 N.3   221  HIS221     -0.1241
     56  CA        46.6020   27.5630  -39.3400 C.3   221  HIS221      0.1621
     57  C         48.1200   27.6550  -39.3580 C.2   221  HIS221      0.2264
     58  O         48.8030   26.6340  -39.3200 O.2   221  HIS221     -0.2867
     59  CB        46.1220   26.8400  -38.0710 C.3   221  HIS221      0.0745
     60  CG        46.8960   27.1780  -36.8310 C.ar  221  HIS221      0.0817
     61  ND1       46.5600   28.2290  -36.0070 N.ar  221  HIS221     -0.2268
     62  CD2       47.9690   26.5810  -36.2580 C.ar  221  HIS221      0.1154
     63  CE1       47.4050   28.2800  -34.9930 C.ar  221  HIS221      0.1986
     64  NE2       48.2710   27.2920  -35.1220 N.ar  221  HIS221     -0.2212
     65  N         50.9050   30.5680  -37.5290 N.3   223  HIS223     -0.1241
     66  CA        51.5020   31.8030  -37.0410 C.3   223  HIS223      0.1621
     67  C         52.9460   31.9330  -37.5190 C.2   223  HIS223      0.2264
     68  O         53.2960   32.9080  -38.1870 O.2   223  HIS223     -0.2867
     69  CB        51.4440   31.8670  -35.5180 C.3   223  HIS223      0.0745
     70  CG        50.0650   32.0470  -34.9700 C.ar  223  HIS223      0.0817
     71  ND1       49.4220   33.2650  -34.9570 N.ar  223  HIS223     -0.2268
     72  CD2       49.2110   31.1650  -34.3990 C.ar  223  HIS223      0.1154
     73  CE1       48.2300   33.1260  -34.4050 C.ar  223  HIS223      0.1986
     74  NE2       48.0760   31.8600  -34.0620 N.ar  223  HIS223     -0.2212
     75  N         45.5520   33.2400  -39.7810 N.3   241  HIS241     -0.1241
     76  CA        46.4020   34.0490  -38.8900 C.3   241  HIS241      0.1621
     77  C         47.6090   34.7230  -39.5460 C.2   241  HIS241      0.2264
     78  O         47.6750   35.9520  -39.5880 O.2   241  HIS241     -0.2867
     79  CB        46.7900   33.3100  -37.5990 C.3   241  HIS241      0.0745
     80  CG        45.7260   32.3930  -37.0810 C.ar  241  HIS241      0.0817
     81  ND1       44.6020   32.8490  -36.4310 N.ar  241  HIS241     -0.2268
     82  CD2       45.6080   31.0460  -37.1350 C.ar  241  HIS241      0.1154
     83  CE1       43.8380   31.8230  -36.1030 C.ar  241  HIS241      0.1986
     84  NE2       44.4290   30.7150  -36.5130 N.ar  241  HIS241     -0.2212
     85  N         43.1950   37.3570  -38.4940 N.3   263  ASP263     -0.1239
     86  CA        42.3380   37.7580  -37.3810 C.3   263  ASP263      0.1674
     87  C         43.0050   38.7860  -36.4680 C.2   263  ASP263      0.2266
     88  O         43.6910   38.4420  -35.5040 O.2   263  ASP263     -0.2867
     89  CB        41.8130   36.5370  -36.6050 C.3   263  ASP263      0.1410
     90  CG        42.9160   35.5510  -36.2000 C.2   263  ASP263      0.3668
     91  OD1       43.9560   35.4440  -36.8930 O.co2 263  ASP263     -0.2456
     92  OD2       42.7350   34.8670  -35.1700 O.co2 263  ASP263     -0.2456
     93  N         41.1990   40.1110  -32.5870 N.3   266  VAL266     -0.1231
     94  CA        40.9160   39.2010  -31.4690 C.3   266  VAL266      0.1692
     95  C         41.9500   39.2750  -30.3240 C.2   266  VAL266      0.2592
     96  O         41.6390   38.9450  -29.1730 O.2   266  VAL266     -0.2718
     97  CB        40.6870   37.7420  -31.9880 C.3   266  VAL266      0.0266
     98  CG1       41.9480   37.1690  -32.6190 C.3   266  VAL266      0.0020
     99  CG2       40.1080   36.8200  -30.9130 C.3   266  VAL266      0.0020
    100  N         43.1540   39.7550  -30.6460 N.am  267  SER267     -0.1952
    101  CA        44.2240   39.9830  -29.6680 C.3   267  SER267      0.1924
    102  C         43.8710   40.9920  -28.5750 C.2   267  SER267      0.2314
    103  O         44.4540   40.9600  -27.4890 O.2   267  SER267     -0.2863
    104  CB        45.5040   40.4300  -30.3730 C.3   267  SER267      0.2116
    105  OG        46.6040   40.4300  -29.4820 O.3   267  SER267     -0.2180
    106  N         41.6530   38.8570  -25.9600 N.3   270  ILE270     -0.1245
    107  CA        42.3510   37.8350  -25.1820 C.3   270  ILE270      0.1561
    108  C         43.1570   38.4810  -24.0520 C.2   270  ILE270      0.2260
    109  O         43.0100   38.1030  -22.8850 O.2   270  ILE270     -0.2867
    110  CB        43.2610   36.9490  -26.0830 C.3   270  ILE270      0.0252
    111  CG1       42.4160   36.1770  -27.1020 C.3   270  ILE270      0.0019
    112  CG2       44.0780   35.9650  -25.2400 C.3   270  ILE270      0.0019
    113  CD1       43.1160   35.9130  -28.4290 C.3   270  ILE270      0.0001
    114  N         50.1090   34.9050  -26.8440 N.3   287  GLU287     -0.1245
    115  CA        49.3380   35.9890  -27.4590 C.3   287  GLU287      0.1567
    116  C         50.1390   37.2910  -27.5420 C.2   287  GLU287      0.2260
    117  O         50.0350   38.0270  -28.5280 O.2   287  GLU287     -0.2867
    118  CB        48.0130   36.2080  -26.7110 C.3   287  GLU287      0.0388
    119  CG        46.9910   37.1110  -27.4230 C.3   287  GLU287      0.1160
    120  CD        46.8730   36.8360  -28.9160 C.2   287  GLU287      0.3649
    121  OE1       46.3690   35.7590  -29.2930 O.co2 287  GLU287     -0.2457
    122  OE2       47.2880   37.7010  -29.7130 O.co2 287  GLU287     -0.2457
    123  N         52.3560   37.2860  -30.5210 N.3   290  VAL290     -0.1231
    124  CA        51.6940   37.2000  -31.8290 C.3   290  VAL290      0.1692
    125  C         51.0650   38.5410  -32.2470 C.2   290  VAL290      0.2592
    126  O         51.2670   39.0000  -33.3750 O.2   290  VAL290     -0.2718
    127  CB        50.6560   36.0250  -31.8580 C.3   290  VAL290      0.0266
    128  CG1       49.6580   36.1780  -32.9870 C.3   290  VAL290      0.0020
    129  CG2       51.3680   34.6850  -31.9850 C.3   290  VAL290      0.0020
    130  N         50.3410   39.1710  -31.3190 N.am  291  GLY291     -0.1957
    131  CA        49.2540   40.1030  -31.6420 C.3   291  GLY291      0.1869
    132  C         49.6500   41.3750  -32.3720 C.2   291  GLY291      0.2309
    133  O         49.0810   41.6960  -33.4180 O.2   291  GLY291     -0.2863
    134  N         51.3910   40.6860  -35.7840 N.3   294  GLN294     -0.1245
    135  CA        50.4340   40.2790  -36.8120 C.3   294  GLN294      0.1566
    136  C         49.8520   41.4870  -37.5360 C.2   294  GLN294      0.2260
    137  O         49.6770   41.4600  -38.7540 O.2   294  GLN294     -0.2867
    138  CB        49.3070   39.4440  -36.1980 C.3   294  GLN294      0.0367
    139  CG        48.3890   38.7640  -37.2170 C.3   294  GLN294      0.0905
    140  CD        47.1960   38.0840  -36.5710 C.2   294  GLN294      0.2608
    141  OE1       46.6610   38.5590  -35.5680 O.2   294  GLN294     -0.2717
    142  NE2       46.7720   36.9660  -37.1450 N.am  294  GLN294     -0.0878
    143  N         38.3400   34.6620  -36.0420 N.3   313  ASP313     -0.1239
    144  CA        38.2990   33.6490  -34.9770 C.3   313  ASP313      0.1674
    145  C         37.2430   33.8960  -33.8980 C.2   313  ASP313      0.2266
    146  O         37.5390   33.8390  -32.6990 O.2   313  ASP313     -0.2867
    147  CB        39.6840   33.3910  -34.3670 C.3   313  ASP313      0.1410
    148  CG        39.9260   31.9230  -34.0630 C.2   313  ASP313      0.3668
    149  OD1       39.0480   31.2680  -33.4560 O.co2 313  ASP313     -0.2456
    150  OD2       41.0010   31.4220  -34.4440 O.co2 313  ASP313     -0.2456
    151  N         36.1820   32.4810  -29.7760 N.3   316  ILE316     -0.1245
    152  CA        37.0260   33.1050  -28.7590 C.3   316  ILE316      0.1561
    153  C         36.2890   34.2770  -28.1090 C.2   316  ILE316      0.2260
    154  O         35.8710   34.1760  -26.9530 O.2   316  ILE316     -0.2867
    155  CB        38.4140   33.5250  -29.3290 C.3   316  ILE316      0.0252
    156  CG1       39.1270   32.3010  -29.9260 C.3   316  ILE316      0.0019
    157  CG2       39.2740   34.1870  -28.2410 C.3   316  ILE316      0.0019
    158  CD1       40.5480   32.5390  -30.3720 C.3   316  ILE316      0.0001
@<TRIPOS>BOND
     1    31    32    1
     2    32    33    1
     3    32    35    1
     4    33    34    2
     5    35    36    1
     6     1     2    1
     7    55    56    1
     8    36    37    1
     9     2     5    1
    10     2     3    1
    11    75    76    1
    12    78    77    2
    13    37    38    1
    14    77    76    1
    15     5     6    1
    16    57    56    1
    17    57    58    2
    18    56    59    1
    19     7     6   ar
    20     7     9   ar
    21    76    79    1
    22   137   136    2
    23     6     8   ar
    24     3     4    2
    25    85    86    1
    26     9    10   ar
    27    38    39    1
    28    68    67    2
    29    59    60    1
    30    79    80    1
    31   136   135    1
    32    65    66    1
    33    67    66    1
    34    86    89    1
    35    86    87    1
    36     8    10   ar
    37   139   140    1
    38   139   138    1
    39   142   140   am
    40    82    80   ar
    41    82    84   ar
    42    80    81   ar
    43    66    69    1
    44    91    90   ar
    45    60    62   ar
    46    60    61   ar
    47   135   138    1
    48   135   134    1
    49    89    90    1
    50   140   141    2
    51    84    83   ar
    52    87    88    2
    53    81    83   ar
    54    62    64   ar
    55    90    92   ar
    56   143   144    1
    57    61    63   ar
    58    69    70    1
    59    11    12    1
    60    64    63   ar
    61    19    20   ar
    62    19    17   ar
    63   144   147    1
    64   144   145    1
    65    70    71   ar
    66    70    72   ar
    67    71    73   ar
    68    20    18   ar
    69    12    13    1
    70    12    15    1
    71    17    16   ar
    72   150   148   ar
    73    73    74   ar
    74    72    74   ar
    75    18    16   ar
    76   147   148    1
    77    16    15    1
    78   148   149   ar
    79    13    14    2
    80   145   146    2
    81    28    30   ar
    82    28    26   ar
    83   133   132    2
    84   126   125    2
    85   128   127    1
    86    30    29   ar
    87    25    26    1
    88    25    22    1
    89    26    27   ar
    90    98    97    1
    91    93    94    1
    92    21    22    1
    93   132   131    1
    94   125   124    1
    95   125   130   am
    96    23    22    1
    97    23    24    2
    98    97    94    1
    99    97    99    1
   100   129   127    1
   101   127   124    1
   102   124   123    1
   103   131   130    1
   104    29    27   ar
   105    94    95    1
   106   100    95   am
   107   100   101    1
   108   104   101    1
   109   104   105    1
   110   158   156    1
   111    95    96    2
   112    40    41    1
   113    46    44    1
   114   156   155    1
   115   151   152    1
   116   122   120   ar
   117   101   102    1
   118    44    41    1
   119    44    45    1
   120   155   152    1
   121   155   157    1
   122   121   120   ar
   123    41    42    1
   124   120   119    1
   125   152   153    1
   126   102   103    2
   127   117   116    2
   128   113   111    1
   129    47    42   am
   130    47    48    1
   131    52    51    1
   132    52    53    1
   133   153   154    2
   134    51    48    1
   135    42    43    2
   136   116   115    1
   137   115   114    1
   138   115   118    1
   139   119   118    1
   140    48    49    1
   141   111   110    1
   142    53    54    1
   143    49    50    2
   144   110   112    1
   145   110   107    1
   146   106   107    1
   147   107   108    1
   148   108   109    2
