@<TRIPOS>MOLECULE
tmp/3be9A00.pdb
 160 153 0 0 0
SMALL
GASTEIGER

@<TRIPOS>ATOM
      1  N         27.1180    7.1740   26.2260 N.3    40  VAL40      -0.1231
      2  CA        25.7850    6.5850   26.2730 C.3    40  VAL40       0.1692
      3  C         25.7010    5.2780   25.5090 C.2    40  VAL40       0.2593
      4  O         24.7710    4.4990   25.7020 O.2    40  VAL40      -0.2718
      5  CB        24.7090    7.5440   25.7080 C.3    40  VAL40       0.0266
      6  CG1       24.5440    8.7410   26.6310 C.3    40  VAL40       0.0020
      7  CG2       25.0880    7.9950   24.3000 C.3    40  VAL40       0.0020
      8  N         26.6750    5.0380   24.6400 N.am   41  GLY41      -0.1942
      9  CA        26.6630    3.8120   23.8700 C.3    41  GLY41       0.2014
     10  C         27.9880    3.5180   23.2080 C.2    41  GLY41       0.2639
     11  O         28.9820    4.2110   23.4310 O.2    41  GLY41      -0.2714
     12  N         27.9970    2.4840   22.3790 N.am   42  ARG42      -0.1963
     13  CA        29.2030    2.0870   21.6830 C.3    42  ARG42       0.1729
     14  C         28.9140    1.0270   20.6330 C.2    42  ARG42       0.2616
     15  O         27.8540    0.4000   20.6350 O.2    42  ARG42      -0.2715
     16  CB        30.2320    1.5600   22.6870 C.3    42  ARG42       0.0348
     17  CG        29.6690    0.5670   23.7070 C.3    42  ARG42       0.0492
     18  CD        29.1510   -0.6920   23.0390 C.3    42  ARG42       0.2205
     19  NE        28.4580   -1.5760   23.9690 N.pl3  42  ARG42      -0.0865
     20  CZ        27.8750   -2.7160   23.6160 C.cat  42  ARG42       0.5346
     21  NH1       27.9010   -3.1100   22.3510 N.pl3  42  ARG42       0.1354
     22  NH2       27.2670   -3.4650   24.5250 N.pl3  42  ARG42       0.1354
     23  N         29.8700    0.8450   19.7330 N.am   43  GLY43      -0.1955
     24  CA        29.7510   -0.1490   18.6840 C.3    43  GLY43       0.1869
     25  C         31.1720   -0.5790   18.3970 C.2    43  GLY43       0.2309
     26  O         32.1030    0.0180   18.9340 O.2    43  GLY43      -0.2863
     27  N         32.7150    2.5690   16.9310 N.3    46  SER46      -0.1217
     28  CA        32.7000    3.8900   17.5380 C.3    46  SER46       0.1889
     29  C         32.3150    3.9420   19.0030 C.2    46  SER46       0.2288
     30  O         31.9390    2.9370   19.6070 O.2    46  SER46      -0.2866
     31  CB        31.7280    4.7750   16.7670 C.3    46  SER46       0.2089
     32  OG        30.4110    4.2640   16.8810 O.3    46  SER46      -0.2183
     33  N         29.9060    6.4110   21.5370 N.3    48  VAL48      -0.1245
     34  CA        28.8410    7.3990   21.4730 C.3    48  VAL48       0.1561
     35  C         28.6130    8.1300   22.7860 C.2    48  VAL48       0.2260
     36  O         28.4690    7.5100   23.8490 O.2    48  VAL48      -0.2867
     37  CB        27.5250    6.7260   21.0390 C.3    48  VAL48       0.0252
     38  CG1       26.4320    7.7760   20.8460 C.3    48  VAL48       0.0019
     39  CG2       27.7610    5.9350   19.7620 C.3    48  VAL48       0.0019
     40  N         24.2000   14.2400   19.9750 N.3    61  ILE61      -0.1245
     41  CA        24.8700   12.9640   20.1620 C.3    61  ILE61       0.1561
     42  C         26.1640   13.0200   19.3730 C.2    61  ILE61       0.2260
     43  O         26.1770   13.3720   18.1930 O.2    61  ILE61      -0.2867
     44  CB        24.0340   11.7780   19.6600 C.3    61  ILE61       0.0252
     45  CG1       22.8620   11.5210   20.6130 C.3    61  ILE61       0.0019
     46  CG2       24.9140   10.5390   19.5690 C.3    61  ILE61       0.0019
     47  CD1       23.2820   11.0360   22.0110 C.3    61  ILE61       0.0001
     48  N         29.1720   10.9090   17.9390 N.3    63  LYS63      -0.1245
     49  CA        29.5990    9.5740   17.5530 C.3    63  LYS63       0.1561
     50  C         31.0580    9.6590   17.1290 C.2    63  LYS63       0.2260
     51  O         31.3610   10.0910   16.0170 O.2    63  LYS63      -0.2867
     52  CB        28.7470    9.0720   16.3830 C.3    63  LYS63       0.0271
     53  CG        29.1740    7.7250   15.8160 C.3    63  LYS63       0.0035
     54  CD        28.2910    7.3410   14.6230 C.3    63  LYS63       0.0206
     55  CE        28.5780    5.9220   14.1480 C.3    63  LYS63       0.1093
     56  NZ        27.6180    5.5000   13.0840 N.3    63  LYS63      -0.1314
     57  N         17.4330    9.9310   11.2380 N.3    89  VAL89      -0.1245
     58  CA        18.2750   10.6540   12.1830 C.3    89  VAL89       0.1561
     59  C         18.9420   11.8020   11.4280 C.2    89  VAL89       0.2260
     60  O         19.2830   11.6660   10.2490 O.2    89  VAL89      -0.2867
     61  CB        19.3680    9.7320   12.8020 C.3    89  VAL89       0.0252
     62  CG1       20.3900    9.3190   11.7410 C.3    89  VAL89       0.0019
     63  CG2       20.0550   10.4470   13.9680 C.3    89  VAL89       0.0019
     64  N         25.0210   14.3200   15.7890 N.3   107  PHE107     -0.1227
     65  CA        23.6200   14.0470   15.4820 C.3   107  PHE107      0.1736
     66  C         22.6670   14.6620   16.4890 C.2   107  PHE107      0.2595
     67  O         23.0580   15.0410   17.5980 O.2   107  PHE107     -0.2718
     68  CB        23.3490   12.5400   15.4950 C.3   107  PHE107      0.0547
     69  CG        24.1590   11.7590   14.5140 C.ar  107  PHE107     -0.0202
     70  CD1       23.7650   11.6650   13.1800 C.ar  107  PHE107     -0.0042
     71  CD2       25.3060   11.0920   14.9260 C.ar  107  PHE107     -0.0042
     72  CE1       24.5030   10.9090   12.2650 C.ar  107  PHE107     -0.0003
     73  CE2       26.0530   10.3360   14.0230 C.ar  107  PHE107     -0.0003
     74  CZ        25.6450   10.2440   12.6840 C.ar  107  PHE107     -0.0000
     75  N         21.4010   14.7260   16.0900 N.am  108  GLU108     -0.1965
     76  CA        20.3510   15.2430   16.9460 C.3   108  GLU108      0.1733
     77  C         20.3030   14.2940   18.1350 C.2   108  GLU108      0.2616
     78  O         20.7550   13.1490   18.0430 O.2   108  GLU108     -0.2715
     79  CB        19.0070   15.2170   16.2090 C.3   108  GLU108      0.0429
     80  CG        18.5210   13.8080   15.8520 C.3   108  GLU108      0.1163
     81  CD        17.1620   13.7930   15.1620 C.2   108  GLU108      0.3649
     82  OE1       17.1150   13.5610   13.9360 O.co2 108  GLU108     -0.2457
     83  OE2       16.1400   14.0130   15.8480 O.co2 108  GLU108     -0.2457
     84  N         19.7580   14.7680   19.2480 N.am  109  TYR109     -0.1960
     85  CA        19.6530   13.9550   20.4510 C.3   109  TYR109      0.1771
     86  C         18.2370   13.4230   20.6290 C.2   109  TYR109      0.2619
     87  O         17.2670   14.1450   20.4240 O.2   109  TYR109     -0.2715
     88  CB        20.0160   14.7870   21.6800 C.3   109  TYR109      0.0574
     89  CG        19.8750   14.0410   22.9850 C.ar  109  TYR109     -0.0198
     90  CD1       20.9000   13.2250   23.4610 C.ar  109  TYR109     -0.0009
     91  CD2       18.7090   14.1410   23.7410 C.ar  109  TYR109     -0.0009
     92  CE1       20.7670   12.5290   24.6640 C.ar  109  TYR109      0.0417
     93  CE2       18.5640   13.4480   24.9390 C.ar  109  TYR109      0.0417
     94  CZ        19.5940   12.6470   25.3960 C.ar  109  TYR109      0.1957
     95  OH        19.4490   11.9720   26.5850 O.3   109  TYR109     -0.2866
     96  N         18.1190   12.1600   21.0190 N.am  110  VAL110     -0.1963
     97  CA        16.8100   11.5730   21.2560 C.3   110  VAL110      0.1727
     98  C         16.7860   10.9340   22.6380 C.2   110  VAL110      0.2616
     99  O         17.6440   10.1180   22.9640 O.2   110  VAL110     -0.2715
    100  CB        16.4670   10.5080   20.1990 C.3   110  VAL110      0.0290
    101  CG1       15.1380    9.8530   20.5440 C.3   110  VAL110      0.0023
    102  CG2       16.3980   11.1540   18.8150 C.3   110  VAL110      0.0023
    103  N         15.8070   11.3150   23.4530 N.am  111  ASN111     -0.1958
    104  CA        15.6860   10.7620   24.7960 C.3   111  ASN111      0.1819
    105  C         15.1370    9.3410   24.6970 C.2   111  ASN111      0.2621
    106  O         13.9830    9.0750   25.0440 O.2   111  ASN111     -0.2715
    107  CB        14.7440   11.6160   25.6420 C.3   111  ASN111      0.1195
    108  CG        14.6650   11.1390   27.0720 C.2   111  ASN111      0.2630
    109  OD1       13.7280   11.4700   27.7990 O.2   111  ASN111     -0.2716
    110  ND2       15.6560   10.3610   27.4890 N.am  111  ASN111     -0.0877
    111  N         15.9810    8.4270   24.2330 N.am  112  ASN112     -0.1972
    112  CA        15.5960    7.0350   24.0490 C.3   112  ASN112      0.1688
    113  C         15.4890    6.2260   25.3340 C.2   112  ASN112      0.2292
    114  O         16.1230    6.5400   26.3410 O.2   112  ASN112     -0.2864
    115  CB        16.6030    6.3570   23.1170 C.3   112  ASN112      0.1181
    116  CG        16.3100    4.8870   22.9140 C.2   112  ASN112      0.2629
    117  OD1       15.3170    4.5190   22.2840 O.2   112  ASN112     -0.2716
    118  ND2       17.1660    4.0370   23.4590 N.am  112  ASN112     -0.0877
    119  N         18.1680   -1.6870   18.4810 N.3   154  HIS154     -0.1226
    120  CA        19.2740   -0.7970   18.8530 C.3   154  HIS154      0.1752
    121  C         19.4410    0.3940   17.9150 C.2   154  HIS154      0.2596
    122  O         20.0310    1.4140   18.2920 O.2   154  HIS154     -0.2718
    123  CB        20.5960   -1.5700   18.8670 C.3   154  HIS154      0.0759
    124  CG        20.4850   -2.9450   19.4450 C.ar  154  HIS154      0.0818
    125  ND1       21.1740   -3.3350   20.5730 N.ar  154  HIS154     -0.2268
    126  CD2       19.7640   -4.0230   19.0500 C.ar  154  HIS154      0.1154
    127  CE1       20.8820   -4.5940   20.8490 C.ar  154  HIS154      0.1986
    128  NE2       20.0290   -5.0340   19.9410 N.ar  154  HIS154     -0.2212
    129  N         18.9670    0.2550   16.6810 N.am  155  ASN155     -0.1974
    130  CA        19.0960    1.3420   15.7250 C.3   155  ASN155      0.1688
    131  C         17.8020    2.0890   15.5140 C.2   155  ASN155      0.2292
    132  O         17.6240    2.7960   14.5190 O.2   155  ASN155     -0.2864
    133  CB        19.6450    0.8270   14.3930 C.3   155  ASN155      0.1181
    134  CG        21.1300    0.5350   14.4680 C.2   155  ASN155      0.2629
    135  OD1       21.8550    1.1650   15.2480 O.2   155  ASN155     -0.2716
    136  ND2       21.5980   -0.4060   13.6530 N.am  155  ASN155     -0.0877
    137  N         15.7930    4.6350   17.7580 N.3   157  MET157     -0.1245
    138  CA        15.6900    5.4590   18.9580 C.3   157  MET157      0.1570
    139  C         14.2440    5.8840   19.1610 C.2   157  MET157      0.2261
    140  O         13.5660    6.2960   18.2180 O.2   157  MET157     -0.2867
    141  CB        16.5720    6.7060   18.8310 C.3   157  MET157      0.0387
    142  CG        18.0720    6.4220   18.8100 C.3   157  MET157      0.0595
    143  SD        18.6740    5.7110   20.3710 S.3   157  MET157     -0.1393
    144  CE        18.5480    3.9600   20.0390 C.3   157  MET157      0.0692
    145  N         18.4370    5.1740   13.2610 N.3   168  ILE168     -0.1231
    146  CA        19.8300    5.6010   13.3450 C.3   168  ILE168      0.1692
    147  C         20.8980    4.6320   12.8240 C.2   168  ILE168      0.2592
    148  O         20.6120    3.5150   12.3780 O.2   168  ILE168     -0.2718
    149  CB        20.2000    5.9370   14.8110 C.3   168  ILE168      0.0266
    150  CG1       20.2380    4.6480   15.6420 C.3   168  ILE168      0.0019
    151  CG2       19.1440    6.8670   15.4260 C.3   168  ILE168      0.0020
    152  CD1       20.9730    4.7850   16.9760 C.3   168  ILE168      0.0001
    153  N         22.1380    5.1080   12.9130 N.am  169  ASP169     -0.1974
    154  CA        23.3460    4.3990   12.5160 C.3   169  ASP169      0.1709
    155  C         23.3250    3.8070   11.1170 C.2   169  ASP169      0.2293
    156  O         22.9940    2.6320   10.9150 O.2   169  ASP169     -0.2864
    157  CB        23.6810    3.3160   13.5350 C.3   169  ASP169      0.1436
    158  CG        25.1640    2.9790   13.5480 C.2   169  ASP169      0.3671
    159  OD1       25.6770    2.5930   14.6240 O.co2 169  ASP169     -0.2456
    160  OD2       25.8160    3.0990   12.4820 O.co2 169  ASP169     -0.2456
@<TRIPOS>BOND
     1    60    59    2
     2   156   155    2
     3   155   154    1
     4    57    58    1
     5    59    58    1
     6    62    61    1
     7    58    61    1
     8    72    74   ar
     9    72    70   ar
    10   148   147    2
    11   160   158   ar
    12   154   153    1
    13   154   157    1
    14    74    73   ar
    15    61    63    1
    16   147   153   am
    17   147   146    1
    18    56    55    1
    19    70    69   ar
    20   145   146    1
    21   146   149    1
    22   157   158    1
    23   158   159   ar
    24   136   134   am
    25    82    81   ar
    26    73    71   ar
    27    55    54    1
    28   133   134    1
    29   133   130    1
    30   134   135    2
    31    69    71   ar
    32    69    68    1
    33   132   131    2
    34    54    53    1
    35   149   151    1
    36   149   150    1
    37    81    83   ar
    38    81    80    1
    39    65    68    1
    40    65    64    1
    41    65    66    1
    42   131   130    1
    43   150   152    1
    44   130   129    1
    45    53    52    1
    46    80    79    1
    47    51    50    2
    48    75    66   am
    49    75    76    1
    50    79    76    1
    51    52    49    1
    52    66    67    2
    53   129   121   am
    54    31    32    1
    55    31    28    1
    56    27    28    1
    57    76    77    1
    58    50    49    1
    59    28    29    1
    60    49    48    1
    61   137   138    1
    62   121   122    2
    63   121   120    1
    64    78    77    2
    65    77    84   am
    66    43    42    2
    67   140   139    2
    68    25    24    1
    69    25    26    2
    70   119   120    1
    71    24    23    1
    72   142   141    1
    73   142   143    1
    74   102   100    1
    75   141   138    1
    76   120   123    1
    77   123   124    1
    78   138   139    1
    79    29    30    2
    80   126   124   ar
    81   126   128   ar
    82    84    85    1
    83    42    41    1
    84   124   125   ar
    85    46    44    1
    86    44    41    1
    87    44    45    1
    88    23    14   am
    89    39    37    1
    90   128   127   ar
    91    40    41    1
    92   144   143    1
    93   100   101    1
    94   100    97    1
    95    87    86    2
    96    85    86    1
    97    85    88    1
    98   125   127   ar
    99    45    47    1
   100    86    96   am
   101    14    15    2
   102    14    13    1
   103    38    37    1
   104    96    97    1
   105    37    34    1
   106    97    98    1
   107    34    33    1
   108    34    35    1
   109    88    89    1
   110    13    12    1
   111    13    16    1
   112   117   116    2
   113    21    20    1
   114    12    10   am
   115    98    99    2
   116    98   103   am
   117    16    17    1
   118    35    36    2
   119   116   115    1
   120   116   118   am
   121    89    90   ar
   122    89    91   ar
   123    18    17    1
   124    18    19    1
   125   115   112    1
   126    10    11    2
   127    10     9    1
   128   103   104    1
   129    90    92   ar
   130    20    19    2
   131    20    22    1
   132    91    93   ar
   133     9     8    1
   134   112   111    1
   135   112   113    1
   136   111   105   am
   137     7     5    1
   138     8     3   am
   139    92    94   ar
   140   105   104    1
   141   105   106    2
   142   104   107    1
   143    93    94   ar
   144   113   114    2
   145    94    95    1
   146     3     4    2
   147     3     2    1
   148   107   108    1
   149     5     2    1
   150     5     6    1
   151     1     2    1
   152   108   110   am
   153   108   109    2
