@<TRIPOS>MOLECULE
tmp/3beaA00.pdb
 178 170 0 0 0
SMALL
GASTEIGER

@<TRIPOS>ATOM
      1  N         -0.9280   26.4300    6.8650 N.3    42  LEU42      -0.1231
      2  CA         0.0340   27.5160    6.7040 C.3    42  LEU42       0.1693
      3  C          0.0880   27.9830    5.2550 C.2    42  LEU42       0.2592
      4  O          0.2020   29.1780    4.9780 O.2    42  LEU42      -0.2718
      5  CB         1.4230   27.0540    7.1530 C.3    42  LEU42       0.0284
      6  CG         1.5310   26.6380    8.6260 C.3    42  LEU42       0.0019
      7  CD1        2.8880   26.0030    8.8950 C.3    42  LEU42       0.0001
      8  CD2        1.3060   27.8500    9.5160 C.3    42  LEU42       0.0001
      9  N          0.0110   27.0300    4.3340 N.am   43  GLY43      -0.1957
     10  CA         0.0320   27.3620    2.9240 C.3    43  GLY43       0.1869
     11  C         -0.2850   26.1300    2.1030 C.2    43  GLY43       0.2309
     12  O         -0.2930   25.0160    2.6320 O.2    43  GLY43      -0.2863
     13  N          0.8960   22.5560    3.4540 N.3    50  VAL50      -0.1245
     14  CA         1.6370   22.4710    4.7010 C.3    50  VAL50       0.1561
     15  C          0.7940   23.0160    5.8460 C.2    50  VAL50       0.2260
     16  O          0.3050   24.1430    5.7830 O.2    50  VAL50      -0.2867
     17  CB         2.9470   23.2700    4.6250 C.3    50  VAL50       0.0252
     18  CG1        3.6060   23.3050    5.9900 C.3    50  VAL50       0.0019
     19  CG2        3.8910   22.6320    3.5980 C.3    50  VAL50       0.0019
     20  N          5.8250   21.7280   11.4520 N.3    68  ALA68      -0.1245
     21  CA         5.0880   21.8540   10.2040 C.3    68  ALA68       0.1562
     22  C          4.9540   20.4690    9.5870 C.2    68  ALA68       0.2260
     23  O          5.8910   19.6640    9.6300 O.2    68  ALA68      -0.2867
     24  CB         5.8240   22.7880    9.2530 C.3    68  ALA68       0.0290
     25  N          3.7820   18.4690    6.0400 N.3    70  LYS70      -0.1245
     26  CA         3.4270   18.5300    4.6290 C.3    70  LYS70       0.1561
     27  C          2.6820   17.2580    4.2170 C.2    70  LYS70       0.2260
     28  O          3.0090   16.1600    4.6790 O.2    70  LYS70      -0.2867
     29  CB         4.6960   18.6980    3.7840 C.3    70  LYS70       0.0271
     30  CG         4.4620   18.6740    2.2790 C.3    70  LYS70       0.0035
     31  CD         5.7480   18.9920    1.5220 C.3    70  LYS70       0.0206
     32  CE         6.3060   20.3430    1.9500 C.3    70  LYS70       0.1093
     33  NZ         7.7700   20.4550    1.6730 N.3    70  LYS70      -0.1314
     34  N         15.4280   24.3500    6.9550 N.3   101  VAL101     -0.1245
     35  CA        14.2770   23.7930    7.6580 C.3   101  VAL101      0.1561
     36  C         14.4400   22.2740    7.7250 C.2   101  VAL101      0.2260
     37  O         14.2860   21.5770    6.7200 O.2   101  VAL101     -0.2867
     38  CB        12.9710   24.1260    6.9180 C.3   101  VAL101      0.0252
     39  CG1       11.7930   23.5640    7.6780 C.3   101  VAL101      0.0019
     40  CG2       12.8290   25.6380    6.7600 C.3   101  VAL101      0.0019
     41  N          8.5550   18.6910    9.5380 N.3   117  THR117     -0.1203
     42  CA         9.7360   19.5610    9.5870 C.3   117  THR117      0.1994
     43  C          9.6060   20.5940   10.7050 C.2   117  THR117      0.2618
     44  O          8.5370   20.7530   11.2890 O.2   117  THR117     -0.2717
     45  CB         9.9310   20.3180    8.2570 C.3   117  THR117      0.1784
     46  OG1        8.6950   20.9430    7.8770 O.3   117  THR117     -0.2211
     47  CG2       10.3720   19.3740    7.1590 C.3   117  THR117      0.0376
     48  N         10.6970   21.2970   10.9930 N.am  118  GLU118     -0.1965
     49  CA        10.6990   22.3410   12.0110 C.3   118  GLU118      0.1733
     50  C          9.7110   23.4430   11.6320 C.2   118  GLU118      0.2616
     51  O          9.6150   23.8250   10.4640 O.2   118  GLU118     -0.2715
     52  CB        12.1010   22.9560   12.1460 C.3   118  GLU118      0.0429
     53  CG        13.2380   21.9620   12.3700 C.3   118  GLU118      0.1163
     54  CD        14.6180   22.6170   12.2820 C.2   118  GLU118      0.3649
     55  OE1       14.8190   23.4780   11.4000 O.co2 118  GLU118     -0.2457
     56  OE2       15.5020   22.2700   13.0950 O.co2 118  GLU118     -0.2457
     57  N          8.9910   23.9570   12.6270 N.am  119  TYR119     -0.1960
     58  CA         8.0800   25.0780   12.4270 C.3   119  TYR119      0.1771
     59  C          8.8310   26.4000   12.6120 C.2   119  TYR119      0.2620
     60  O          9.5440   26.5870   13.6000 O.2   119  TYR119     -0.2715
     61  CB         6.9220   24.9970   13.4290 C.3   119  TYR119      0.0574
     62  CG         5.9880   26.1860   13.3880 C.ar  119  TYR119     -0.0198
     63  CD1        5.2240   26.4500   12.2620 C.ar  119  TYR119     -0.0009
     64  CD2        5.8890   27.0610   14.4650 C.ar  119  TYR119     -0.0009
     65  CE1        4.3900   27.5510   12.2010 C.ar  119  TYR119      0.0417
     66  CE2        5.0510   28.1710   14.4120 C.ar  119  TYR119      0.0417
     67  CZ         4.3080   28.4080   13.2780 C.ar  119  TYR119      0.1957
     68  OH         3.4750   29.5040   13.2060 O.3   119  TYR119     -0.2866
     69  N          8.6650   27.3100   11.6570 N.am  120  CYS120     -0.1954
     70  CA         9.3040   28.6180   11.7230 C.3   120  CYS120      0.1843
     71  C          8.2650   29.6780   12.0820 C.2   120  CYS120      0.2626
     72  O          7.4550   30.0740   11.2470 O.2   120  CYS120     -0.2714
     73  CB         9.9580   28.9470   10.3750 C.3   120  CYS120      0.0997
     74  SG        11.3020   27.8110    9.9100 S.3   120  CYS120     -0.0797
     75  N          8.3060   30.1410   13.3260 N.am  121  CYS121     -0.1954
     76  CA         7.1870   30.8620   13.9070 C.3   121  CYS121      0.1843
     77  C          6.8960   32.2410   13.3090 C.2   121  CYS121      0.2625
     78  O          5.7780   32.7320   13.4270 O.2   121  CYS121     -0.2714
     79  CB         7.3820   30.9850   15.4230 C.3   121  CYS121      0.0997
     80  SG         8.8260   31.9470   15.9240 S.3   121  CYS121     -0.0797
     81  N          7.8790   32.8680   12.6630 N.am  122  TYR122     -0.1960
     82  CA         7.6760   34.2300   12.1640 C.3   122  TYR122      0.1771
     83  C          7.2420   34.3320   10.7070 C.2   122  TYR122      0.2620
     84  O          6.9740   35.4280   10.2130 O.2   122  TYR122     -0.2715
     85  CB         8.9340   35.0710   12.3860 C.3   122  TYR122      0.0574
     86  CG         9.2190   35.3030   13.8470 C.ar  122  TYR122     -0.0198
     87  CD1       10.3950   34.8540   14.4240 C.ar  122  TYR122     -0.0009
     88  CD2        8.2790   35.9270   14.6640 C.ar  122  TYR122     -0.0009
     89  CE1       10.6330   35.0130   15.7770 C.ar  122  TYR122      0.0417
     90  CE2        8.5060   36.0900   16.0200 C.ar  122  TYR122      0.0417
     91  CZ         9.6850   35.6300   16.5700 C.ar  122  TYR122      0.1957
     92  OH         9.9190   35.7780   17.9140 O.3   122  TYR122     -0.2866
     93  N          7.1700   33.1980   10.0170 N.am  123  GLY123     -0.1940
     94  CA         6.6830   33.2150    8.6470 C.3   123  GLY123      0.2014
     95  C          7.7670   33.5770    7.6480 C.2   123  GLY123      0.2638
     96  O          8.9470   33.3510    7.9000 O.2   123  GLY123     -0.2714
     97  N          7.3770   34.1490    6.5140 N.am  124  ASP124     -0.1971
     98  CA         8.3400   34.4040    5.4510 C.3   124  ASP124      0.1709
     99  C          9.0480   35.7500    5.6040 C.2   124  ASP124      0.2293
    100  O          8.5050   36.7030    6.1660 O.2   124  ASP124     -0.2864
    101  CB         7.6570   34.3230    4.0810 C.3   124  ASP124      0.1436
    102  CG         6.5700   35.3690    3.8970 C.2   124  ASP124      0.3671
    103  OD1        5.5280   35.2880    4.5890 O.co2 124  ASP124     -0.2456
    104  OD2        6.7570   36.2670    3.0490 O.co2 124  ASP124     -0.2456
    105  N          7.4320   39.1370    3.8080 N.3   127  ASN127     -0.1240
    106  CA         6.3830   39.7960    4.5800 C.3   127  ASN127      0.1653
    107  C          6.9700   40.5440    5.7730 C.2   127  ASN127      0.2266
    108  O          6.5470   41.6600    6.0790 O.2   127  ASN127     -0.2867
    109  CB         5.3550   38.7730    5.0850 C.3   127  ASN127      0.1155
    110  CG         4.2720   39.4140    5.9370 C.2   127  ASN127      0.2627
    111  OD1        4.2090   39.2020    7.1530 O.2   127  ASN127     -0.2716
    112  ND2        3.4140   40.2070    5.3030 N.am  127  ASN127     -0.0877
    113  N         10.4580   35.5190   -0.5050 N.3   171  ARG171     -0.1245
    114  CA         9.2160   34.7980   -0.2110 C.3   171  ARG171      0.1563
    115  C          9.5240   33.3680    0.2430 C.2   171  ARG171      0.2260
    116  O          8.7040   32.7250    0.8950 O.2   171  ARG171     -0.2867
    117  CB         8.3120   34.7490   -1.4460 C.3   171  ARG171      0.0307
    118  CG         8.8920   33.9220   -2.5870 C.3   171  ARG171      0.0489
    119  CD         8.0250   33.9630   -3.8420 C.3   171  ARG171      0.2205
    120  NE         8.7080   33.3310   -4.9680 N.pl3 171  ARG171     -0.0865
    121  CZ         9.4230   33.9910   -5.8760 C.cat 171  ARG171      0.5346
    122  NH1        9.5410   35.3080   -5.8000 N.pl3 171  ARG171      0.1354
    123  NH2       10.0490   33.3320   -6.8420 N.pl3 171  ARG171      0.1354
    124  N         12.2710   31.5710    5.4600 N.3   174  LEU174     -0.1245
    125  CA        11.4440   31.6190    6.6630 C.3   174  LEU174      0.1561
    126  C         12.2660   32.1090    7.8540 C.2   174  LEU174      0.2260
    127  O         13.4840   31.9470    7.8810 O.2   174  LEU174     -0.2867
    128  CB        10.8730   30.2320    6.9660 C.3   174  LEU174      0.0270
    129  CG         9.6320   29.7800    6.1930 C.3   174  LEU174      0.0019
    130  CD1        9.6900   30.2470    4.7620 C.3   174  LEU174      0.0001
    131  CD2        9.5340   28.2650    6.2630 C.3   174  LEU174      0.0001
    132  N         14.3040   26.0920    2.5490 N.3   184  GLY184     -0.1210
    133  CA        13.8060   24.7380    2.3920 C.3   184  GLY184      0.1956
    134  C         13.1280   24.5890    1.0430 C.2   184  GLY184      0.2612
    135  O         13.0380   25.5510    0.2740 O.2   184  GLY184     -0.2717
    136  N         12.6510   23.3880    0.7400 N.am  185  ASP185     -0.1959
    137  CA        11.9140   23.1900   -0.4990 C.3   185  ASP185      0.1840
    138  C         10.4270   23.3960   -0.2380 C.2   185  ASP185      0.2622
    139  O          9.7380   22.4770    0.2090 O.2   185  ASP185     -0.2715
    140  CB        12.1550   21.7870   -1.0490 C.3   185  ASP185      0.1450
    141  CG        11.6080   21.6200   -2.4510 C.2   185  ASP185      0.3671
    142  OD1       10.7810   22.4560   -2.8680 O.co2 185  ASP185     -0.2456
    143  OD2       12.0020   20.6640   -3.1390 O.co2 185  ASP185     -0.2456
    144  N          9.9480   24.6060   -0.5260 N.am  186  PHE186     -0.1974
    145  CA         8.6300   25.0580   -0.0900 C.3   186  PHE186      0.1639
    146  C          7.5680   25.0050   -1.1740 C.2   186  PHE186      0.2290
    147  O          6.4420   25.4500   -0.9560 O.2   186  PHE186     -0.2864
    148  CB         8.7030   26.4940    0.4330 C.3   186  PHE186      0.0560
    149  CG         9.6070   26.6640    1.6070 C.ar  186  PHE186     -0.0200
    150  CD1        9.7850   25.6320    2.5110 C.ar  186  PHE186     -0.0042
    151  CD2       10.2850   27.8530    1.8070 C.ar  186  PHE186     -0.0042
    152  CE1       10.6240   25.7780    3.5970 C.ar  186  PHE186     -0.0003
    153  CE2       11.1300   28.0090    2.8920 C.ar  186  PHE186     -0.0003
    154  CZ        11.3010   26.9690    3.7900 C.ar  186  PHE186     -0.0000
    155  N          3.9140   24.2600   -0.4460 N.3   189  ALA189     -0.1231
    156  CA         3.2300   25.2270    0.3980 C.3   189  ALA189      0.1694
    157  C          2.9660   26.5060   -0.3850 C.2   189  ALA189      0.2592
    158  O          2.3050   27.4220    0.1010 O.2   189  ALA189     -0.2718
    159  CB         4.0710   25.5290    1.6210 C.3   189  ALA189      0.0304
    160  N          3.4980   26.5600   -1.6000 N.am  190  ARG190     -0.1966
    161  CA         3.3980   27.7490   -2.4380 C.3   190  ARG190      0.1729
    162  C          2.2260   27.6350   -3.4090 C.2   190  ARG190      0.2616
    163  O          2.1700   26.7150   -4.2300 O.2   190  ARG190     -0.2715
    164  CB         4.7040   27.9430   -3.2180 C.3   190  ARG190      0.0348
    165  CG         4.6480   29.0140   -4.3050 C.3   190  ARG190      0.0492
    166  CD         4.8650   30.4050   -3.7450 C.3   190  ARG190      0.2205
    167  NE         6.0010   30.4370   -2.8320 N.pl3 190  ARG190     -0.0865
    168  CZ         6.1280   31.3100   -1.8400 C.cat 190  ARG190      0.5346
    169  NH1        5.1900   32.2280   -1.6370 N.pl3 190  ARG190      0.1354
    170  NH2        7.1840   31.2570   -1.0440 N.pl3 190  ARG190      0.1354
    171  N          1.2920   28.5760   -3.3090 N.am  191  ASP191     -0.1971
    172  CA         0.1600   28.6280   -4.2230 C.3   191  ASP191      0.1709
    173  C          0.5970   29.2660   -5.5330 C.2   191  ASP191      0.2293
    174  O          0.0950   30.3210   -5.9060 O.2   191  ASP191     -0.2864
    175  CB        -0.9780   29.4460   -3.6100 C.3   191  ASP191      0.1436
    176  CG        -2.2470   29.3940   -4.4420 C.2   191  ASP191      0.3671
    177  OD1       -2.1750   28.9580   -5.6100 O.co2 191  ASP191     -0.2456
    178  OD2       -3.3170   29.7840   -3.9310 O.co2 191  ASP191     -0.2456
@<TRIPOS>BOND
     1   123   121    1
     2   174   173    2
     3   121   122    1
     4   121   120    2
     5   177   176   ar
     6   173   172    1
     7   120   119    1
     8   176   178   ar
     9   176   175    1
    10   165   166    1
    11   165   164    1
    12   163   162    2
    13   172   175    1
    14   172   171    1
    15   119   118    1
    16   166   167    1
    17   162   171   am
    18   162   161    1
    19   164   161    1
    20   143   141   ar
    21   142   141   ar
    22   167   168    2
    23   118   117    1
    24   141   140    1
    25   161   160    1
    26   168   169    1
    27   168   170    1
    28   160   157   am
    29   117   114    1
    30   146   147    2
    31   146   145    1
    32   140   137    1
    33   144   138   am
    34   144   145    1
    35   113   114    1
    36   137   138    1
    37   137   136    1
    38   155   156    1
    39   157   158    2
    40   157   156    1
    41   138   139    2
    42   114   115    1
    43   145   148    1
    44   115   116    2
    45   135   134    2
    46   156   159    1
    47   148   149    1
    48   136   134   am
    49   134   133    1
    50    31    32    1
    51    31    30    1
    52   149   151   ar
    53   149   150   ar
    54    33    32    1
    55   151   153   ar
    56    11    12    2
    57    11    10    1
    58    30    29    1
    59   133   132    1
    60   150   152   ar
    61   153   154   ar
    62    10     9    1
    63   104   102   ar
    64    13    14    1
    65   152   154   ar
    66    19    17    1
    67    29    26    1
    68   105   106    1
    69   102   101    1
    70   102   103   ar
    71   101    98    1
    72    27    26    1
    73    27    28    2
    74     9     3   am
    75   106   109    1
    76   106   107    1
    77    17    14    1
    78    17    18    1
    79    26    25    1
    80    14    15    1
    81   130   129    1
    82     4     3    2
    83   109   110    1
    84     3     2    1
    85   112   110   am
    86    98    99    1
    87    98    97    1
    88   124   125    1
    89    99   100    2
    90   107   108    2
    91    16    15    2
    92   110   111    2
    93   129   131    1
    94   129   128    1
    95    97    95   am
    96   125   128    1
    97   125   126    1
    98     2     1    1
    99     2     5    1
   100    37    36    2
   101    40    38    1
   102    38    35    1
   103    38    39    1
   104    34    35    1
   105     5     6    1
   106    47    45    1
   107    95    96    2
   108    95    94    1
   109    35    36    1
   110   126   127    2
   111    46    45    1
   112    45    42    1
   113     6     7    1
   114     6     8    1
   115    94    93    1
   116    24    21    1
   117    41    42    1
   118    22    23    2
   119    22    21    1
   120    42    43    1
   121    74    73    1
   122    93    83   am
   123    21    20    1
   124    84    83    2
   125    73    70    1
   126    51    50    2
   127    43    48   am
   128    43    44    2
   129    83    82    1
   130    48    49    1
   131    72    71    2
   132    55    54   ar
   133    50    49    1
   134    50    57   am
   135    69    70    1
   136    69    59   am
   137    70    71    1
   138    49    52    1
   139    71    75   am
   140    52    53    1
   141    82    85    1
   142    82    81    1
   143    65    63   ar
   144    65    67   ar
   145    63    62   ar
   146    54    53    1
   147    54    56   ar
   148    85    86    1
   149    58    59    1
   150    58    57    1
   151    58    61    1
   152    59    60    2
   153    81    77   am
   154    68    67    1
   155    67    66   ar
   156    77    78    2
   157    77    76    1
   158    75    76    1
   159    62    61    1
   160    62    64   ar
   161    86    87   ar
   162    86    88   ar
   163    76    79    1
   164    66    64   ar
   165    87    89   ar
   166    88    90   ar
   167    79    80    1
   168    89    91   ar
   169    90    91   ar
   170    91    92    1
