@<TRIPOS>MOLECULE
tmp/3bebA00.pdb
 109 102 0 0 0
SMALL
GASTEIGER

@<TRIPOS>ATOM
      1  N         36.4340    5.2950   24.7460 N.3    40  ALA40      -0.1231
      2  CA        37.5270    5.7520   25.6180 C.3    40  ALA40       0.1694
      3  C         38.6000    6.4680   24.7820 C.2    40  ALA40       0.2592
      4  O         38.2590    7.3060   23.9370 O.2    40  ALA40      -0.2718
      5  CB        38.1220    4.5850   26.3740 C.3    40  ALA40       0.0304
      6  N         39.8720    6.1110   24.9930 N.am   41  SER41      -0.1952
      7  CA        41.0150    6.7150   24.3050 C.3    41  SER41       0.1924
      8  C         41.1250    6.3670   22.8330 C.2    41  SER41       0.2314
      9  O         41.9150    6.9720   22.1210 O.2    41  SER41      -0.2863
     10  CB        42.3250    6.3300   24.9840 C.3    41  SER41       0.2116
     11  OG        42.4660    6.9920   26.2250 O.3    41  SER41      -0.2180
     12  N         41.1280    9.2560   20.2240 N.3    44  LYS44      -0.1245
     13  CA        42.3790    9.8890   19.6950 C.3    44  LYS44       0.1561
     14  C         42.9860    9.2920   18.4210 C.2    44  LYS44       0.2260
     15  O         43.9680    9.8270   17.8930 O.2    44  LYS44      -0.2867
     16  CB        43.4630   10.0070   20.7740 C.3    44  LYS44       0.0271
     17  CG        42.9410   10.5920   22.0700 C.3    44  LYS44       0.0035
     18  CD        43.9660   10.5340   23.1570 C.3    44  LYS44       0.0206
     19  CE        43.4100   11.0930   24.4520 C.3    44  LYS44       0.1093
     20  NZ        41.9840   10.6750   24.6930 N.3    44  LYS44      -0.1314
     21  N         42.8040   12.7540   36.4960 N.3    82  GLY82      -0.1210
     22  CA        42.9720   11.3020   36.4060 C.3    82  GLY82       0.1956
     23  C         43.4200   10.7910   35.0500 C.2    82  GLY82       0.2613
     24  O         43.7620    9.6060   34.9060 O.2    82  GLY82      -0.2717
     25  N         43.4320   11.6810   34.0540 N.am   83  SER83      -0.1938
     26  CA        43.6780   11.2900   32.6590 C.3    83  SER83       0.2055
     27  C         45.1460   11.4310   32.2520 C.2    83  SER83       0.2643
     28  O         45.9330   12.1050   32.9290 O.2    83  SER83      -0.2714
     29  CB        42.7660   12.0690   31.6960 C.3    83  SER83       0.2130
     30  OG        43.1530   13.4370   31.5860 O.3    83  SER83      -0.2179
     31  N         45.5090   10.7750   31.1510 N.am   84  SER84      -0.1949
     32  CA        46.8560   10.8400   30.6320 C.3    84  SER84       0.1924
     33  C         47.0790   12.2690   30.1790 C.2    84  SER84       0.2314
     34  O         46.1880   12.8770   29.5830 O.2    84  SER84      -0.2863
     35  CB        47.0240    9.8490   29.4810 C.3    84  SER84       0.2116
     36  OG        48.3330    9.8990   28.9280 O.3    84  SER84      -0.2180
     37  N         48.5700    9.2630   24.5220 N.3   107  SER107     -0.1217
     38  CA        47.1620    9.6770   24.6170 C.3   107  SER107      0.1889
     39  C         46.9660   10.8970   25.5460 C.2   107  SER107      0.2288
     40  O         45.9480   11.0090   26.2070 O.2   107  SER107     -0.2866
     41  CB        46.2570    8.4980   25.0330 C.3   107  SER107      0.2089
     42  OG        46.1680    7.4940   24.0240 O.3   107  SER107     -0.2183
     43  N         45.7540   14.1100   26.7560 N.3   109  ASN109     -0.1240
     44  CA        44.5370   14.8340   26.3910 C.3   109  ASN109      0.1653
     45  C         44.7670   16.3040   26.2830 C.2   109  ASN109      0.2266
     46  O         44.0920   16.9840   25.5090 O.2   109  ASN109     -0.2867
     47  CB        43.4400   14.6230   27.4220 C.3   109  ASN109      0.1155
     48  CG        43.0470   13.1910   27.5410 C.2   109  ASN109      0.2627
     49  OD1       42.2620   12.6730   26.7390 O.2   109  ASN109     -0.2716
     50  ND2       43.6110   12.5160   28.5310 N.am  109  ASN109     -0.0877
     51  N         37.1600   12.7770   26.3500 N.3   150  LEU150     -0.1245
     52  CA        36.6580   13.0910   27.6870 C.3   150  LEU150      0.1561
     53  C         35.4670   13.9870   27.5200 C.2   150  LEU150      0.2260
     54  O         35.2930   14.6230   26.4670 O.2   150  LEU150     -0.2867
     55  CB        37.6860   13.8400   28.5370 C.3   150  LEU150      0.0270
     56  CG        39.0630   13.2520   28.8060 C.3   150  LEU150      0.0019
     57  CD1       39.9920   14.3770   29.2640 C.3   150  LEU150      0.0001
     58  CD2       39.0140   12.1060   29.8210 C.3   150  LEU150      0.0001
     59  N         51.9350    2.9450   25.5020 N.3   195  ARG195     -0.1245
     60  CA        51.0840    2.0420   26.2990 C.3   195  ARG195      0.1563
     61  C         50.6310    0.7750   25.5550 C.2   195  ARG195      0.2260
     62  O         50.0570   -0.1240   26.1630 O.2   195  ARG195     -0.2867
     63  CB        49.8670    2.7870   26.8800 C.3   195  ARG195      0.0307
     64  CG        50.1790    4.0460   27.7110 C.3   195  ARG195      0.0489
     65  CD        48.9100    4.9140   27.8960 C.3   195  ARG195      0.2205
     66  NE        49.1540    6.2020   28.5620 N.pl3 195  ARG195     -0.0865
     67  CZ        49.3650    6.3570   29.8740 C.cat 195  ARG195      0.5346
     68  NH1       49.3820    5.3080   30.6930 N.pl3 195  ARG195      0.1354
     69  NH2       49.5760    7.5710   30.3750 N.pl3 195  ARG195      0.1354
     70  N         45.4450    1.8610   22.4210 N.3   211  THR211     -0.1203
     71  CA        44.9930    1.2490   23.6550 C.3   211  THR211      0.1994
     72  C         44.0040    2.2150   24.3470 C.2   211  THR211      0.2618
     73  O         44.0220    3.4310   24.1110 O.2   211  THR211     -0.2717
     74  CB        46.2550    1.0030   24.5170 C.3   211  THR211      0.1784
     75  OG1       46.0740   -0.1090   25.4010 O.3   211  THR211     -0.2211
     76  CG2       46.6420    2.2440   25.3030 C.3   211  THR211      0.0376
     77  N         43.1210    1.6890   25.1870 N.am  212  GLY212     -0.1942
     78  CA        42.1100    2.5420   25.8440 C.3   212  GLY212      0.2014
     79  C         41.3830    1.8320   26.9670 C.2   212  GLY212      0.2639
     80  O         41.1460    0.6400   26.8910 O.2   212  GLY212     -0.2714
     81  N         41.0650    2.5590   28.0330 N.am  213  HIS213     -0.1959
     82  CA        40.3560    1.9960   29.1770 C.3   213  HIS213      0.1787
     83  C         39.6690    3.0820   29.9900 C.2   213  HIS213      0.2620
     84  O         40.2610    4.1260   30.2640 O.2   213  HIS213     -0.2715
     85  CB        41.2880    1.1970   30.1130 C.3   213  HIS213      0.0785
     86  CG        40.5940    0.6910   31.3430 C.ar  213  HIS213      0.0821
     87  ND1       40.6070    1.3740   32.5400 N.ar  213  HIS213     -0.2267
     88  CD2       39.8120   -0.3970   31.5390 C.ar  213  HIS213      0.1154
     89  CE1       39.8850    0.7120   33.4270 C.ar  213  HIS213      0.1986
     90  NE2       39.3930   -0.3680   32.8450 N.ar  213  HIS213     -0.2212
     91  N         38.4060    2.8260   30.3160 N.am  214  THR214     -0.1951
     92  CA        37.6480    3.5400   31.3420 C.3   214  THR214      0.1897
     93  C         36.8030    2.4710   32.0410 C.2   214  THR214      0.2313
     94  O         36.6680    1.3650   31.5250 O.2   214  THR214     -0.2863
     95  CB        36.7160    4.6140   30.7500 C.3   214  THR214      0.1794
     96  OG1       35.7860    3.9980   29.8690 O.3   214  THR214     -0.2208
     97  CG2       37.4860    5.6730   29.9730 C.3   214  THR214      0.0378
     98  N         38.4380   -2.4770   28.7400 N.3   219  TYR219     -0.1241
     99  CA        39.7180   -2.3830   28.0290 C.3   219  TYR219      0.1605
    100  C         39.5440   -2.4350   26.5160 C.2   219  TYR219      0.2264
    101  O         38.9270   -3.3590   25.9830 O.2   219  TYR219     -0.2867
    102  CB        40.6800   -3.4800   28.4960 C.3   219  TYR219      0.0534
    103  CG        41.0640   -3.3250   29.9390 C.ar  219  TYR219     -0.0201
    104  CD1       40.3060   -3.9200   30.9480 C.ar  219  TYR219     -0.0009
    105  CD2       42.1630   -2.5530   30.3050 C.ar  219  TYR219     -0.0009
    106  CE1       40.6390   -3.7560   32.2960 C.ar  219  TYR219      0.0417
    107  CE2       42.5100   -2.3790   31.6480 C.ar  219  TYR219      0.0417
    108  CZ        41.7440   -2.9860   32.6360 C.ar  219  TYR219      0.1957
    109  OH        42.0750   -2.8170   33.9610 O.3   219  TYR219     -0.2866
@<TRIPOS>BOND
     1    15    14    2
     2    14    13    1
     3    13    12    1
     4    13    16    1
     5    16    17    1
     6    17    18    1
     7     9     8    2
     8    70    71    1
     9     8     7    1
    10    18    19    1
    11    71    72    1
    12    71    74    1
    13     4     3    2
    14    42    41    1
    15    73    72    2
    16     7    10    1
    17     7     6    1
    18    72    77   am
    19    19    20    1
    20    74    76    1
    21    74    75    1
    22    37    38    1
    23    38    41    1
    24    38    39    1
    25     1     2    1
    26     3     6   am
    27     3     2    1
    28    10    11    1
    29    77    78    1
    30    59    60    1
    31    46    45    2
    32    39    40    2
    33    61    62    2
    34    61    60    1
    35     2     5    1
    36    78    79    1
    37   101   100    2
    38    45    44    1
    39    60    63    1
    40    51    52    1
    41    44    43    1
    42    44    47    1
    43    54    53    2
    44   100    99    1
    45    49    48    2
    46    63    64    1
    47    80    79    2
    48    79    81   am
    49    47    48    1
    50    53    52    1
    51    48    50   am
    52    52    55    1
    53    64    65    1
    54    65    66    1
    55    99   102    1
    56    99    98    1
    57    81    82    1
    58   102   103    1
    59    55    56    1
    60    66    67    2
    61    56    57    1
    62    56    58    1
    63    36    35    1
    64    82    83    1
    65    82    85    1
    66    35    32    1
    67    34    33    2
    68    96    95    1
    69    67    69    1
    70    67    68    1
    71   103   105   ar
    72   103   104   ar
    73    97    95    1
    74    83    84    2
    75    83    91   am
    76    85    86    1
    77    33    32    1
    78   105   107   ar
    79    91    92    1
    80    32    31    1
    81    95    92    1
    82   104   106   ar
    83    31    27   am
    84    92    93    1
    85    86    88   ar
    86    86    87   ar
    87    94    93    2
    88    88    90   ar
    89    30    29    1
    90   107   108   ar
    91    29    26    1
    92    27    26    1
    93    27    28    2
    94   106   108   ar
    95    87    89   ar
    96   108   109    1
    97    26    25    1
    98    90    89   ar
    99    25    23   am
   100    24    23    2
   101    23    22    1
   102    22    21    1
