@<TRIPOS>MOLECULE
tmp/3becA00.pdb
 123 116 0 0 0
SMALL
GASTEIGER

@<TRIPOS>ATOM
      1  N         36.4440    5.3140   24.8610 N.3    40  ALA40      -0.1231
      2  CA        37.5290    5.7640   25.7280 C.3    40  ALA40       0.1694
      3  C         38.6070    6.4610   24.8530 C.2    40  ALA40       0.2592
      4  O         38.2600    7.2020   23.9130 O.2    40  ALA40      -0.2718
      5  CB        38.0970    4.5950   26.5590 C.3    40  ALA40       0.0304
      6  N         39.8970    6.2100   25.1290 N.am   41  SER41      -0.1952
      7  CA        40.9730    6.9360   24.4290 C.3    41  SER41       0.1924
      8  C         41.0860    6.5420   22.9520 C.2    41  SER41       0.2314
      9  O         41.8540    7.1590   22.2110 O.2    41  SER41      -0.2863
     10  CB        42.3550    6.7730   25.1180 C.3    41  SER41       0.2116
     11  OG        42.4360    7.3670   26.4170 O.3    41  SER41      -0.2180
     12  N         41.0240    9.2190   20.3760 N.3    44  LYS44      -0.1245
     13  CA        42.2370    9.8960   19.9390 C.3    44  LYS44       0.1561
     14  C         42.8380    9.3300   18.6490 C.2    44  LYS44       0.2260
     15  O         43.6570    9.9910   18.0100 O.2    44  LYS44      -0.2867
     16  CB        43.2700    9.9010   21.0500 C.3    44  LYS44       0.0271
     17  CG        42.7910   10.6130   22.2790 C.3    44  LYS44       0.0035
     18  CD        43.8010   10.5540   23.3830 C.3    44  LYS44       0.0206
     19  CE        43.3230   11.3460   24.5680 C.3    44  LYS44       0.1093
     20  NZ        42.2740   10.6500   25.4260 N.3    44  LYS44      -0.1314
     21  N         42.4230   12.8260   36.8240 N.3    82  GLY82      -0.1210
     22  CA        42.5520   11.3780   36.7360 C.3    82  GLY82       0.1956
     23  C         42.8610   10.8300   35.3520 C.2    82  GLY82       0.2613
     24  O         42.9110    9.6100   35.1660 O.2    82  GLY82      -0.2717
     25  N         43.0590   11.7250   34.3830 N.am   83  SER83      -0.1938
     26  CA        43.3600   11.3420   33.0050 C.3    83  SER83       0.2055
     27  C         44.8440   11.5140   32.6730 C.2    83  SER83       0.2643
     28  O         45.5890   12.1490   33.4190 O.2    83  SER83      -0.2714
     29  CB        42.5300   12.1900   32.0370 C.3    83  SER83       0.2130
     30  OG        43.0840   13.4930   31.8740 O.3    83  SER83      -0.2179
     31  N         45.2400   10.9720   31.5250 N.am   84  SER84      -0.1949
     32  CA        46.6140   11.0290   31.0560 C.3    84  SER84       0.1924
     33  C         46.8970   12.4450   30.5630 C.2    84  SER84       0.2314
     34  O         46.0850   13.0150   29.8410 O.2    84  SER84      -0.2863
     35  CB        46.8200   10.0020   29.9410 C.3    84  SER84       0.2116
     36  OG        48.1680    9.9800   29.4920 O.3    84  SER84      -0.2180
     37  N         48.3830    9.3420   25.1320 N.3   107  SER107     -0.1217
     38  CA        46.9850    9.7860   25.1850 C.3   107  SER107      0.1889
     39  C         46.7780   11.0120   26.0600 C.2   107  SER107      0.2288
     40  O         45.8410   11.0740   26.8570 O.2   107  SER107     -0.2866
     41  CB        46.0510    8.6450   25.5910 C.3   107  SER107      0.2089
     42  OG        45.8350    7.8070   24.4790 O.3   107  SER107     -0.2183
     43  N         45.5340   14.2650   27.1490 N.3   109  ASN109     -0.1240
     44  CA        44.2800   14.9690   26.8500 C.3   109  ASN109      0.1653
     45  C         44.5020   16.4580   26.6320 C.2   109  ASN109      0.2266
     46  O         43.8460   17.0780   25.7880 O.2   109  ASN109     -0.2867
     47  CB        43.2590   14.6750   27.9320 C.3   109  ASN109      0.1155
     48  CG        42.8880   13.2220   27.9470 C.2   109  ASN109      0.2627
     49  OD1       42.2460   12.7520   27.0280 O.2   109  ASN109     -0.2716
     50  ND2       43.3750   12.4710   28.9400 N.am  109  ASN109     -0.0877
     51  N         51.5430    2.4430   26.0020 N.3   195  ARG195     -0.1245
     52  CA        50.6900    1.5320   26.7880 C.3   195  ARG195      0.1563
     53  C         50.3050    0.2670   26.0180 C.2   195  ARG195      0.2260
     54  O         49.6960   -0.6600   26.5780 O.2   195  ARG195     -0.2867
     55  CB        49.4070    2.2300   27.2810 C.3   195  ARG195      0.0307
     56  CG        49.5340    3.7180   27.6480 C.3   195  ARG195      0.0489
     57  CD        50.4700    3.9860   28.8190 C.3   195  ARG195      0.2205
     58  NE        50.4440    5.4050   29.1990 N.pl3 195  ARG195     -0.0865
     59  CZ        49.4870    5.9920   29.9250 C.cat 195  ARG195      0.5346
     60  NH1       48.4450    5.2970   30.3850 N.pl3 195  ARG195      0.1354
     61  NH2       49.5790    7.2900   30.2030 N.pl3 195  ARG195      0.1354
     62  N         45.3030    1.9730   22.7500 N.3   211  THR211     -0.1203
     63  CA        44.5900    1.4080   23.8890 C.3   211  THR211      0.1994
     64  C         43.6540    2.4350   24.5230 C.2   211  THR211      0.2618
     65  O         43.7800    3.6630   24.3320 O.2   211  THR211     -0.2717
     66  CB        45.5830    0.9510   24.9870 C.3   211  THR211      0.1784
     67  OG1       46.2710    2.0880   25.5340 O.3   211  THR211     -0.2211
     68  CG2       46.6070   -0.0040   24.4220 C.3   211  THR211      0.0376
     69  N         42.7340    1.9390   25.3310 N.am  212  GLY212     -0.1942
     70  CA        41.8850    2.8270   26.1110 C.3   212  GLY212      0.2014
     71  C         41.1930    2.0440   27.1850 C.2   212  GLY212      0.2639
     72  O         41.0060    0.8300   27.0590 O.2   212  GLY212     -0.2714
     73  N         40.8320    2.7350   28.2560 N.am  213  HIS213     -0.1959
     74  CA        40.1070    2.1060   29.3410 C.3   213  HIS213      0.1787
     75  C         39.3470    3.1470   30.1570 C.2   213  HIS213      0.2620
     76  O         39.8910    4.2100   30.4780 O.2   213  HIS213     -0.2715
     77  CB        41.0460    1.3200   30.2610 C.3   213  HIS213      0.0785
     78  CG        40.4160    0.9530   31.5700 C.ar  213  HIS213      0.0821
     79  ND1       40.6170    1.6800   32.7240 N.ar  213  HIS213     -0.2267
     80  CD2       39.5520   -0.0390   31.8940 C.ar  213  HIS213      0.1154
     81  CE1       39.9200    1.1370   33.7090 C.ar  213  HIS213      0.1986
     82  NE2       39.2630    0.0950   33.2310 N.ar  213  HIS213     -0.2212
     83  N         38.0830    2.8370   30.4190 N.am  214  THR214     -0.1951
     84  CA        37.2790    3.4740   31.4740 C.3   214  THR214      0.1897
     85  C         36.3960    2.3940   32.1030 C.2   214  THR214      0.2313
     86  O         36.3300    1.2710   31.6150 O.2   214  THR214     -0.2863
     87  CB        36.3630    4.5750   30.9290 C.3   214  THR214      0.1794
     88  OG1       35.3580    3.9970   30.0950 O.3   214  THR214     -0.2208
     89  CG2       37.1440    5.5950   30.1370 C.3   214  THR214      0.0378
     90  N         38.3130   -2.4680   28.9580 N.3   219  TYR219     -0.1241
     91  CA        39.6280   -2.3900   28.3390 C.3   219  TYR219      0.1605
     92  C         39.5320   -2.5290   26.8110 C.2   219  TYR219      0.2264
     93  O         39.0790   -3.5510   26.3040 O.2   219  TYR219     -0.2867
     94  CB        40.5590   -3.4450   28.9660 C.3   219  TYR219      0.0534
     95  CG        40.7970   -3.1650   30.4250 C.ar  219  TYR219     -0.0201
     96  CD1       39.8650   -3.5550   31.3840 C.ar  219  TYR219     -0.0009
     97  CD2       41.9190   -2.4480   30.8480 C.ar  219  TYR219     -0.0009
     98  CE1       40.0590   -3.2750   32.7370 C.ar  219  TYR219      0.0417
     99  CE2       42.1270   -2.1650   32.1950 C.ar  219  TYR219      0.0417
    100  CZ        41.1900   -2.5800   33.1370 C.ar  219  TYR219      0.1957
    101  OH        41.3790   -2.3040   34.4770 O.3   219  TYR219     -0.2866
    102  N         43.9610   -5.0620   31.7760 N.3   242  PHE242     -0.1241
    103  CA        45.1100   -4.6210   30.9700 C.3   242  PHE242      0.1605
    104  C         45.7440   -5.8060   30.2440 C.2   242  PHE242      0.2264
    105  O         46.0460   -5.7250   29.0510 O.2   242  PHE242     -0.2867
    106  CB        46.1490   -3.9250   31.8600 C.3   242  PHE242      0.0534
    107  CG        47.3760   -3.4460   31.1220 C.ar  242  PHE242     -0.0203
    108  CD1       48.4800   -4.2770   30.9670 C.ar  242  PHE242     -0.0042
    109  CD2       47.4370   -2.1520   30.6150 C.ar  242  PHE242     -0.0042
    110  CE1       49.6170   -3.8340   30.3010 C.ar  242  PHE242     -0.0003
    111  CE2       48.5740   -1.6990   29.9440 C.ar  242  PHE242     -0.0003
    112  CZ        49.6640   -2.5420   29.7880 C.ar  242  PHE242     -0.0000
    113  N         43.2840   -7.6590   27.6230 N.3   245  ARG245     -0.1245
    114  CA        43.0050   -7.0670   26.2870 C.3   245  ARG245      0.1563
    115  C         44.1450   -7.3980   25.3380 C.2   245  ARG245      0.2260
    116  O         43.9060   -7.6180   24.1290 O.2   245  ARG245     -0.2867
    117  CB        42.7350   -5.5640   26.3330 C.3   245  ARG245      0.0307
    118  CG        43.9130   -4.7620   26.7680 C.3   245  ARG245      0.0489
    119  CD        43.6390   -3.3220   26.6480 C.3   245  ARG245      0.2205
    120  NE        44.7380   -2.5550   27.2110 N.pl3 245  ARG245     -0.0865
    121  CZ        44.6300   -1.3050   27.6290 C.cat 245  ARG245      0.5346
    122  NH1       43.4610   -0.6720   27.5430 N.pl3 245  ARG245      0.1354
    123  NH2       45.6970   -0.6920   28.1230 N.pl3 245  ARG245      0.1354
@<TRIPOS>BOND
     1    15    14    2
     2    14    13    1
     3    13    12    1
     4    13    16    1
     5    16    17    1
     6     9     8    2
     7    17    18    1
     8    62    63    1
     9     8     7    1
    10    18    19    1
    11    63    64    1
    12    63    66    1
    13     4     3    2
    14   116   115    2
    15    65    64    2
    16    68    66    1
    17     7    10    1
    18     7     6    1
    19    42    41    1
    20    64    69   am
    21    19    20    1
    22     3     6   am
    23     3     2    1
    24     1     2    1
    25    66    67    1
    26    10    11    1
    27    37    38    1
    28    38    41    1
    29    38    39    1
    30    69    70    1
    31   115   114    1
    32     2     5    1
    33    46    45    2
    34    51    52    1
    35    53    54    2
    36    53    52    1
    37    39    40    2
    38    70    71    1
    39   114   117    1
    40   114   113    1
    41    93    92    2
    42   117   118    1
    43    45    44    1
    44   119   118    1
    45   119   120    1
    46    52    55    1
    47    92    91    1
    48    44    43    1
    49    44    47    1
    50    49    48    2
    51    72    71    2
    52    71    73   am
    53   120   121    2
    54    55    56    1
    55   122   121    1
    56   121   123    1
    57    56    57    1
    58    47    48    1
    59    48    50   am
    60    73    74    1
    61    91    90    1
    62    91    94    1
    63    57    58    1
    64    94    95    1
    65   105   104    2
    66    58    59    2
    67    74    75    1
    68    74    77    1
    69    36    35    1
    70   112   111   ar
    71   112   110   ar
    72    34    33    2
    73    59    61    1
    74    59    60    1
    75    35    32    1
    76   111   109   ar
    77    88    87    1
    78    89    87    1
    79    75    83   am
    80    75    76    2
    81   104   103    1
    82    77    78    1
    83   110   108   ar
    84    83    84    1
    85    95    97   ar
    86    95    96   ar
    87    33    32    1
    88   109   107   ar
    89    97    99   ar
    90    87    84    1
    91   108   107   ar
    92   103   102    1
    93   103   106    1
    94    32    31    1
    95   107   106    1
    96    96    98   ar
    97    84    85    1
    98    31    27   am
    99    78    80   ar
   100    78    79   ar
   101    86    85    2
   102    30    29    1
   103    80    82   ar
   104    29    26    1
   105    99   100   ar
   106    27    26    1
   107    27    28    2
   108    79    81   ar
   109    98   100   ar
   110    26    25    1
   111   100   101    1
   112    82    81   ar
   113    25    23   am
   114    24    23    2
   115    23    22    1
   116    22    21    1
