@<TRIPOS>MOLECULE
tmp/3befB00.pdb
 106 103 0 0 0
SMALL
GASTEIGER

@<TRIPOS>ATOM
      1  N         12.5610    2.1920   -8.5970 N.3   122  ASP122     -0.1239
      2  CA        13.4090    1.7250   -9.6890 C.3   122  ASP122      0.1674
      3  C         14.4560    0.8610   -8.9880 C.2   122  ASP122      0.2266
      4  O         14.5610    0.8970   -7.7640 O.2   122  ASP122     -0.2867
      5  CB        14.1030    2.8990  -10.3800 C.3   122  ASP122      0.1410
      6  CG        14.8760    3.7680   -9.4060 C.2   122  ASP122      0.3668
      7  OD1       14.2430    4.6070   -8.7310 O.co2 122  ASP122     -0.2456
      8  OD2       16.1120    3.5990   -9.3000 O.co2 122  ASP122     -0.2456
      9  N         17.6730    1.1010   -8.5840 N.3   124  GLU124     -0.1231
     10  CA        18.5320    1.9240   -7.7460 C.3   124  GLU124      0.1699
     11  C         17.8670    2.3690   -6.4340 C.2   124  GLU124      0.2592
     12  O         18.4370    2.2140   -5.3570 O.2   124  GLU124     -0.2718
     13  CB        18.9800    3.1460   -8.5450 C.3   124  GLU124      0.0402
     14  CG        19.8500    4.1140   -7.7820 C.3   124  GLU124      0.1161
     15  CD        21.2510    3.5950   -7.5670 C.2   124  GLU124      0.3649
     16  OE1       22.1090    4.3830   -7.1100 O.co2 124  GLU124     -0.2457
     17  OE2       21.4910    2.4010   -7.8540 O.co2 124  GLU124     -0.2457
     18  N         16.6680    2.9360   -6.5170 N.am  125  THR125     -0.1953
     19  CA        15.9850    3.3840   -5.3060 C.3   125  THR125      0.1897
     20  C         15.7180    2.2410   -4.3280 C.2   125  THR125      0.2313
     21  O         15.9450    2.3810   -3.1310 O.2   125  THR125     -0.2863
     22  CB        14.6340    4.0750   -5.6220 C.3   125  THR125      0.1794
     23  OG1       14.8670    5.2930   -6.3390 O.3   125  THR125     -0.2208
     24  CG2       13.8970    4.4050   -4.3350 C.3   125  THR125      0.0378
     25  N         18.9780    0.9600   -2.4590 N.3   128  SER128     -0.1202
     26  CA        19.4710    1.8000   -1.3770 C.3   128  SER128      0.2020
     27  C         18.5190    2.0550   -0.2140 C.2   128  SER128      0.2618
     28  O         18.9710    2.2830    0.9030 O.2   128  SER128     -0.2717
     29  CB        19.9550    3.1420   -1.9350 C.3   128  SER128      0.2103
     30  OG        18.9000    3.8550   -2.5400 O.3   128  SER128     -0.2182
     31  N         17.2120    2.0090   -0.4490 N.am  129  LEU129     -0.1979
     32  CA        16.2790    2.2950    0.6370 C.3   129  LEU129      0.1596
     33  C         15.7550    1.0860    1.4000 C.2   129  LEU129      0.2287
     34  O         15.4010    1.1990    2.5700 O.2   129  LEU129     -0.2864
     35  CB        15.0920    3.1230    0.1230 C.3   129  LEU129      0.0297
     36  CG        15.4280    4.4660   -0.5320 C.3   129  LEU129      0.0022
     37  CD1       14.1480    5.1430   -0.9810 C.3   129  LEU129      0.0001
     38  CD2       16.1790    5.3490    0.4410 C.3   129  LEU129      0.0001
     39  N         17.7400   -2.6670    6.4360 N.3   132  ALA132     -0.1231
     40  CA        17.3350   -2.8290    7.8180 C.3   132  ALA132      0.1694
     41  C         17.6860   -1.5930    8.6350 C.2   132  ALA132      0.2593
     42  O         18.7870   -1.0530    8.5270 O.2   132  ALA132     -0.2718
     43  CB        18.0000   -4.0720    8.4180 C.3   132  ALA132      0.0304
     44  N         16.7440   -1.1430    9.4590 N.am  133  GLY133     -0.1942
     45  CA        16.9970    0.0370   10.2630 C.3   133  GLY133      0.2014
     46  C         16.2900    1.2640    9.7100 C.2   133  GLY133      0.2638
     47  O         15.8910    2.1370   10.4810 O.2   133  GLY133     -0.2714
     48  N         16.1500    1.3450    8.3850 N.am  134  TYR134     -0.1973
     49  CA        15.4520    2.4730    7.7530 C.3   134  TYR134      0.1639
     50  C         13.9580    2.3230    8.0390 C.2   134  TYR134      0.2290
     51  O         13.4450    1.2060    8.1110 O.2   134  TYR134     -0.2864
     52  CB        15.6540    2.4810    6.2260 C.3   134  TYR134      0.0560
     53  CG        17.0420    2.8560    5.7420 C.ar  134  TYR134     -0.0198
     54  CD1       18.0260    3.2980    6.6280 C.ar  134  TYR134     -0.0009
     55  CD2       17.3680    2.7650    4.3870 C.ar  134  TYR134     -0.0009
     56  CE1       19.3040    3.6370    6.1740 C.ar  134  TYR134      0.0417
     57  CE2       18.6310    3.1020    3.9260 C.ar  134  TYR134      0.0417
     58  CZ        19.5940    3.5340    4.8240 C.ar  134  TYR134      0.1957
     59  OH        20.8420    3.8520    4.3590 O.3   134  TYR134     -0.2866
     60  N         13.1730   -2.5780   21.6130 N.3   188  GLU188     -0.1245
     61  CA        13.3490   -1.2380   21.0640 C.3   188  GLU188      0.1567
     62  C         12.3960   -0.2240   21.6870 C.2   188  GLU188      0.2260
     63  O         12.4960    0.9750   21.4300 O.2   188  GLU188     -0.2867
     64  CB        13.1930   -1.2620   19.5380 C.3   188  GLU188      0.0388
     65  CG        14.3530   -1.9390   18.8150 C.3   188  GLU188      0.1160
     66  CD        14.1970   -1.9510   17.2970 C.2   188  GLU188      0.3649
     67  OE1       13.2290   -2.5640   16.7960 O.co2 188  GLU188     -0.2457
     68  OE2       15.0480   -1.3500   16.6040 O.co2 188  GLU188     -0.2457
     69  N         15.4240   10.3730   -0.0150 N.3   208  PRO208     -0.2102
     70  CA        16.1860   11.5400    0.4290 C.3   208  PRO208      0.1504
     71  C         16.9050   12.1580   -0.7760 C.2   208  PRO208      0.2576
     72  O         17.5270   13.2130   -0.6730 O.2   208  PRO208     -0.2718
     73  CB        17.1530   10.9390    1.4460 C.3   208  PRO208      0.0282
     74  CG        17.4700    9.6090    0.8330 C.3   208  PRO208      0.0208
     75  CD        16.1070    9.1180    0.3550 C.3   208  PRO208      0.0893
     76  N         16.7940   11.4940   -1.9230 N.am  209  PHE209     -0.1963
     77  CA        17.4520   11.9420   -3.1490 C.3   209  PHE209      0.1771
     78  C         16.6000   12.8800   -4.0070 C.2   209  PHE209      0.2619
     79  O         17.1360   13.7650   -4.6840 O.2   209  PHE209     -0.2715
     80  CB        17.8400   10.7330   -4.0030 C.3   209  PHE209      0.0574
     81  CG        18.5410    9.6450   -3.2430 C.ar  209  PHE209     -0.0200
     82  CD1       19.7640    9.8840   -2.6200 C.ar  209  PHE209     -0.0042
     83  CD2       17.9920    8.3630   -3.1760 C.ar  209  PHE209     -0.0042
     84  CE1       20.4290    8.8640   -1.9480 C.ar  209  PHE209     -0.0003
     85  CE2       18.6480    7.3370   -2.5070 C.ar  209  PHE209     -0.0003
     86  CZ        19.8690    7.5880   -1.8930 C.ar  209  PHE209     -0.0000
     87  N         15.2840   12.6760   -3.9970 N.am  210  ASN210     -0.1972
     88  CA        14.3970   13.5070   -4.8020 C.3   210  ASN210      0.1688
     89  C         13.0780   13.9100   -4.1110 C.2   210  ASN210      0.2292
     90  O         12.1370   14.3670   -4.7610 O.2   210  ASN210     -0.2864
     91  CB        14.1170   12.7990   -6.1330 C.3   210  ASN210      0.1181
     92  CG        13.3280   11.5200   -5.9630 C.2   210  ASN210      0.2629
     93  OD1       13.1090   10.7810   -6.9260 O.2   210  ASN210     -0.2716
     94  ND2       12.8820   11.2520   -4.7380 N.am  210  ASN210     -0.0877
     95  N          7.8800    6.7370   -2.3080 N.3   214  TYR214     -0.1241
     96  CA         7.9340    5.5090   -3.0960 C.3   214  TYR214      0.1605
     97  C          7.2640    4.3650   -2.3400 C.2   214  TYR214      0.2264
     98  O          7.4460    4.2180   -1.1360 O.2   214  TYR214     -0.2867
     99  CB         9.3990    5.1340   -3.3550 C.3   214  TYR214      0.0534
    100  CG        10.1130    5.9710   -4.3940 C.ar  214  TYR214     -0.0201
    101  CD1       10.1270    5.5820   -5.7350 C.ar  214  TYR214     -0.0009
    102  CD2       10.7960    7.1280   -4.0380 C.ar  214  TYR214     -0.0009
    103  CE1       10.8100    6.3210   -6.6940 C.ar  214  TYR214      0.0417
    104  CE2       11.4870    7.8850   -4.9950 C.ar  214  TYR214      0.0417
    105  CZ        11.4860    7.4690   -6.3230 C.ar  214  TYR214      0.1957
    106  OH        12.1540    8.1990   -7.2820 O.3   214  TYR214     -0.2866
@<TRIPOS>BOND
     1     5     2    1
     2     5     6    1
     3     2     3    1
     4     2     1    1
     5     6     8   ar
     6     6     7   ar
     7     3     4    2
     8     9    10    1
     9    13    14    1
    10    13    10    1
    11    17    15   ar
    12    14    15    1
    13    10    11    1
    14    15    16   ar
    15   106   105    1
    16    93    92    2
    17   103   105   ar
    18   103   101   ar
    19    18    11   am
    20    18    19    1
    21    11    12    2
    22    23    22    1
    23   105   104   ar
    24    91    92    1
    25    91    88    1
    26    92    94   am
    27   101   100   ar
    28    22    19    1
    29    22    24    1
    30    19    20    1
    31   104   102   ar
    32    88    89    1
    33    88    87    1
    34    90    89    2
    35    79    78    2
    36   100   102   ar
    37   100    99    1
    38    20    21    2
    39    78    87   am
    40    78    77    1
    41    80    81    1
    42    80    77    1
    43    99    96    1
    44    81    83   ar
    45    81    82   ar
    46    83    85   ar
    47    77    76    1
    48    96    97    1
    49    96    95    1
    50    82    84   ar
    51    30    29    1
    52    85    86   ar
    53    25    26    1
    54    97    98    2
    55    84    86   ar
    56    29    26    1
    57    76    71   am
    58    26    27    1
    59    37    36    1
    60    71    72    2
    61    71    70    1
    62    36    35    1
    63    36    38    1
    64    31    27   am
    65    31    32    1
    66    27    28    2
    67    69    75    1
    68    69    70    1
    69    35    32    1
    70    75    74    1
    71    70    73    1
    72    32    33    1
    73    74    73    1
    74    33    34    2
    75    57    55   ar
    76    57    58   ar
    77    59    58    1
    78    55    53   ar
    79    58    56   ar
    80    53    52    1
    81    53    54   ar
    82    56    54   ar
    83    52    49    1
    84    39    40    1
    85    49    50    1
    86    49    48    1
    87    40    43    1
    88    40    41    1
    89    50    51    2
    90    48    46   am
    91    42    41    2
    92    41    44   am
    93    44    45    1
    94    46    45    1
    95    46    47    2
    96    68    66   ar
    97    67    66   ar
    98    66    65    1
    99    65    64    1
   100    64    61    1
   101    61    60    1
   102    61    62    1
   103    63    62    2
