@<TRIPOS>MOLECULE
tmp/3bejB00.pdb
 230 221 0 0 0
SMALL
GASTEIGER

@<TRIPOS>ATOM
      1  N          5.7500   29.8770   35.8820 N.3    20  GLN20      -0.1245
      2  CA         4.6130   29.0990   36.3570 C.3    20  GLN20       0.1566
      3  C          4.7550   28.2090   37.5430 C.2    20  GLN20       0.2260
      4  O          5.8460   27.8180   37.9410 O.2    20  GLN20      -0.2867
      5  CB         4.1010   28.2210   35.2260 C.3    20  GLN20       0.0367
      6  CG         4.8470   26.9160   35.1560 C.3    20  GLN20       0.0905
      7  CD         6.2340   27.0860   34.5580 C.2    20  GLN20       0.2608
      8  OE1        6.6690   28.2140   34.2890 O.2    20  GLN20      -0.2717
      9  NE2        6.9360   25.9620   34.3380 N.am   20  GLN20      -0.0878
     10  N          2.9600   24.5320   39.1630 N.3    22  MET22      -0.1245
     11  CA         2.2730   23.3580   38.6810 C.3    22  MET22       0.1570
     12  C          0.7950   23.6060   39.0520 C.2    22  MET22       0.2261
     13  O          0.4870   24.0950   40.1400 O.2    22  MET22      -0.2867
     14  CB         2.8220   22.1230   39.4040 C.3    22  MET22       0.0387
     15  CG         2.2390   20.7740   38.9390 C.3    22  MET22       0.0595
     16  SD         2.6880   20.3050   37.2530 S.3    22  MET22      -0.1393
     17  CE         4.5850   20.4580   37.3090 C.3    22  MET22       0.0692
     18  N          0.4390    6.4370   35.4790 N.3    41  PHE41      -0.1241
     19  CA         0.6120    6.7590   34.0630 C.3    41  PHE41       0.1605
     20  C         -0.2910    7.9150   33.7410 C.2    41  PHE41       0.2264
     21  O          0.0850    8.8000   32.9890 O.2    41  PHE41      -0.2867
     22  CB         0.2390    5.5890   33.1440 C.3    41  PHE41       0.0534
     23  CG         0.1190    5.9800   31.7050 C.ar   41  PHE41      -0.0203
     24  CD1        1.2580    6.0540   30.8880 C.ar   41  PHE41      -0.0042
     25  CD2       -1.1000    6.3680   31.1810 C.ar   41  PHE41      -0.0042
     26  CE1        1.1700    6.4650   29.5670 C.ar   41  PHE41      -0.0003
     27  CE2       -1.1990    6.7820   29.8440 C.ar   41  PHE41      -0.0003
     28  CZ        -0.0490    6.8430   29.0420 C.ar   41  PHE41      -0.0000
     29  N          1.2200   11.2550   34.9980 N.3    44  LEU44      -0.1231
     30  CA         2.3680   11.6680   34.1710 C.3    44  LEU44       0.1693
     31  C          1.8900   12.1810   32.8150 C.2    44  LEU44       0.2592
     32  O          2.4480   13.1140   32.2460 O.2    44  LEU44      -0.2718
     33  CB         3.3090   10.4780   33.9580 C.3    44  LEU44       0.0284
     34  CG         3.8910   10.0020   35.2920 C.3    44  LEU44       0.0019
     35  CD1        4.6600    8.7070   35.0300 C.3    44  LEU44       0.0001
     36  CD2        4.8270   11.0830   35.8750 C.3    44  LEU44       0.0001
     37  N          0.8450   11.5510   32.3040 N.am   45  THR45      -0.1953
     38  CA         0.2350   11.9250   31.0210 C.3    45  THR45       0.1897
     39  C         -0.3450   13.3520   31.1340 C.2    45  THR45       0.2313
     40  O         -0.1770   14.1750   30.2410 O.2    45  THR45      -0.2863
     41  CB        -0.8960   10.9060   30.6730 C.3    45  THR45       0.1794
     42  OG1       -0.3020    9.6220   30.3930 O.3    45  THR45      -0.2208
     43  CG2       -1.6790   11.3770   29.4430 C.3    45  THR45       0.0378
     44  N          0.6340   15.6160   33.2440 N.3    47  MET47      -0.1230
     45  CA         1.7980   16.4860   33.4250 C.3    47  MET47       0.1702
     46  C          2.4780   16.7600   32.1070 C.2    47  MET47       0.2592
     47  O          2.8760   17.8920   31.8540 O.2    47  MET47      -0.2718
     48  CB         2.8090   15.8210   34.3820 C.3    47  MET47       0.0401
     49  CG         2.3190   15.8270   35.8310 C.3    47  MET47       0.0596
     50  SD         3.4240   15.0040   36.9600 S.3    47  MET47      -0.1393
     51  CE         4.6650   16.3970   37.1760 C.3    47  MET47       0.0692
     52  N          2.5820   15.7280   31.2640 N.am   48  ALA48      -0.1980
     53  CA         3.2500   15.8210   29.9700 C.3    48  ALA48       0.1597
     54  C          2.4530   16.7610   29.0610 C.2    48  ALA48       0.2287
     55  O          3.0120   17.6710   28.4300 O.2    48  ALA48      -0.2864
     56  CB         3.3880   14.4100   29.3290 C.3    48  ALA48       0.0319
     57  N          2.8200   20.1760   30.1750 N.3    51  HIS51      -0.1241
     58  CA         4.1620   20.6440   29.7880 C.3    51  HIS51       0.1621
     59  C          4.2790   21.0720   28.3340 C.2    51  HIS51       0.2264
     60  O          5.0150   21.9920   28.0220 O.2    51  HIS51      -0.2867
     61  CB         5.2800   19.7220   30.2040 C.3    51  HIS51       0.0745
     62  CG         6.6040   20.4180   30.2560 C.ar   51  HIS51       0.0817
     63  ND1        6.8470   21.4760   31.1070 N.ar   51  HIS51      -0.2268
     64  CD2        7.7050   20.3050   29.4660 C.ar   51  HIS51       0.1154
     65  CE1        8.0720   21.9330   30.8880 C.ar   51  HIS51       0.1986
     66  NE2        8.6160   21.2270   29.9150 N.ar   51  HIS51      -0.2212
     67  N         11.0010   17.5380   27.6270 N.3    85  MET85      -0.1230
     68  CA        10.3830   16.9360   28.8130 C.3    85  MET85       0.1702
     69  C         11.4540   16.2570   29.6910 C.2    85  MET85       0.2592
     70  O         11.3950   16.3250   30.9030 O.2    85  MET85      -0.2718
     71  CB         9.3460   15.8930   28.3770 C.3    85  MET85       0.0401
     72  CG         7.9530   16.4900   28.1980 C.3    85  MET85       0.0596
     73  SD         6.8660   15.2280   27.4710 S.3    85  MET85      -0.1393
     74  CE         5.6560   16.4650   26.6170 C.3    85  MET85       0.0692
     75  N         12.3950   15.5520   29.0730 N.am   86  PHE86      -0.1976
     76  CA        13.4300   14.8750   29.8720 C.3    86  PHE86       0.1639
     77  C         14.4180   15.8540   30.4890 C.2    86  PHE86       0.2290
     78  O         14.9090   15.6260   31.5970 O.2    86  PHE86      -0.2864
     79  CB        14.0770   13.6870   29.1220 C.3    86  PHE86       0.0560
     80  CG        13.1860   12.4690   29.0820 C.ar   86  PHE86      -0.0200
     81  CD1       12.4310   12.1670   27.9740 C.ar   86  PHE86      -0.0042
     82  CD2       13.0380   11.6660   30.2200 C.ar   86  PHE86      -0.0042
     83  CE1       11.5860   11.0310   27.9680 C.ar   86  PHE86      -0.0003
     84  CE2       12.1870   10.5500   30.2240 C.ar   86  PHE86      -0.0003
     85  CZ        11.4670   10.2330   29.1300 C.ar   86  PHE86      -0.0000
     86  N         13.4720   18.9150   31.4210 N.3    88  ARG88      -0.1231
     87  CA        12.6900   19.5040   32.5010 C.3    88  ARG88       0.1694
     88  C         12.6770   18.5410   33.6920 C.2    88  ARG88       0.2592
     89  O         12.8750   18.9630   34.8120 O.2    88  ARG88      -0.2718
     90  CB        11.2530   19.7700   32.0380 C.3    88  ARG88       0.0321
     91  CG        10.3440   20.1070   33.2300 C.3    88  ARG88       0.0489
     92  CD        10.7710   21.4320   33.8410 C.3    88  ARG88       0.2205
     93  NE         9.7080   21.9760   34.6870 N.pl3  88  ARG88      -0.0865
     94  CZ         9.7400   23.1600   35.2840 C.cat  88  ARG88       0.5346
     95  NH1       10.7960   23.9470   35.1800 N.pl3  88  ARG88       0.1354
     96  NH2        8.7050   23.5450   36.0120 N.pl3  88  ARG88       0.1354
     97  N         12.4830   17.2440   33.4520 N.am   89  SER89      -0.1952
     98  CA        12.4950   16.2810   34.5560 C.3    89  SER89       0.1924
     99  C         13.8700   16.2260   35.2680 C.2    89  SER89       0.2314
    100  O         13.9460   16.0980   36.5090 O.2    89  SER89      -0.2863
    101  CB        12.0210   14.9020   34.1160 C.3    89  SER89       0.2116
    102  OG        12.8230   14.3280   33.1140 O.3    89  SER89      -0.2180
    103  N         14.0210   19.3840   37.5460 N.3    92  ILE92      -0.1231
    104  CA        13.1580   19.2950   38.7130 C.3    92  ILE92       0.1692
    105  C         13.6720   18.2770   39.7320 C.2    92  ILE92       0.2592
    106  O         13.6690   18.5190   40.9450 O.2    92  ILE92      -0.2718
    107  CB        11.6940   18.9200   38.2890 C.3    92  ILE92       0.0266
    108  CG1       11.0970   20.0120   37.4060 C.3    92  ILE92       0.0019
    109  CG2       10.8560   18.7020   39.5330 C.3    92  ILE92       0.0020
    110  CD1       11.2440   21.4100   37.9860 C.3    92  ILE92       0.0001
    111  N         14.1190   17.1350   39.2450 N.am   93  PHE93      -0.1976
    112  CA        14.5880   16.1060   40.1510 C.3    93  PHE93       0.1639
    113  C         15.8360   16.5050   40.8910 C.2    93  PHE93       0.2290
    114  O         16.1250   15.9910   41.9550 O.2    93  PHE93      -0.2864
    115  CB        14.7390   14.7680   39.4480 C.3    93  PHE93       0.0560
    116  CG        13.4400   14.0620   39.2670 C.ar   93  PHE93      -0.0200
    117  CD1       13.0730   13.5550   38.0350 C.ar   93  PHE93      -0.0042
    118  CD2       12.5390   13.9840   40.3180 C.ar   93  PHE93      -0.0042
    119  CE1       11.8650   12.9040   37.8760 C.ar   93  PHE93      -0.0003
    120  CE2       11.3140   13.3450   40.1610 C.ar   93  PHE93      -0.0003
    121  CZ        10.9790   12.8140   38.9340 C.ar   93  PHE93      -0.0000
    122  N          6.6450   11.4330   43.3300 N.3   105  LEU105     -0.1245
    123  CA         6.6560   11.5540   41.8680 C.3   105  LEU105      0.1561
    124  C          7.7010   10.5980   41.2870 C.2   105  LEU105      0.2260
    125  O          7.4570    9.9520   40.2800 O.2   105  LEU105     -0.2867
    126  CB         6.9260   13.0140   41.4280 C.3   105  LEU105      0.0270
    127  CG         7.0680   13.2950   39.9110 C.3   105  LEU105      0.0019
    128  CD1        5.8680   12.7780   39.1430 C.3   105  LEU105      0.0001
    129  CD2        7.2710   14.7860   39.5860 C.3   105  LEU105      0.0001
    130  N          6.9010    7.4900   38.7620 N.3   109  ILE109     -0.1245
    131  CA         7.6100    7.2440   37.5060 C.3   109  ILE109      0.1561
    132  C          8.0930    5.7840   37.4850 C.2   109  ILE109      0.2260
    133  O          7.9080    5.0730   36.5090 O.2   109  ILE109     -0.2867
    134  CB         8.7770    8.1910   37.3410 C.3   109  ILE109      0.0252
    135  CG1        8.2840    9.6320   37.0620 C.3   109  ILE109      0.0019
    136  CG2        9.7310    7.6790   36.2490 C.3   109  ILE109      0.0019
    137  CD1        9.3850   10.6950   37.3110 C.3   109  ILE109      0.0001
    138  N          6.8090    1.8170   32.7450 N.3   114  ILE114     -0.1245
    139  CA         8.0560    2.0400   31.9900 C.3   114  ILE114      0.1561
    140  C          8.9540    0.8260   32.3110 C.2   114  ILE114      0.2260
    141  O          9.1500    0.5090   33.4650 O.2   114  ILE114     -0.2867
    142  CB         8.7590    3.3150   32.4200 C.3   114  ILE114      0.0252
    143  CG1        7.8720    4.5340   32.1370 C.3   114  ILE114      0.0019
    144  CG2       10.1440    3.4570   31.7230 C.3   114  ILE114      0.0019
    145  CD1        8.3790    5.8380   32.8450 C.3   114  ILE114      0.0001
    146  N         17.2210    6.8400   32.3680 N.3   122  MET122     -0.1245
    147  CA        16.5450    8.0390   32.7840 C.3   122  MET122      0.1570
    148  C         17.2310    8.5770   34.0710 C.2   122  MET122      0.2261
    149  O         17.6430    9.7440   34.1090 O.2   122  MET122     -0.2867
    150  CB        15.0430    7.7280   33.0380 C.3   122  MET122      0.0387
    151  CG        14.1190    8.9100   33.4180 C.3   122  MET122      0.0595
    152  SD        12.3570    8.2680   33.5060 S.3   122  MET122     -0.1393
    153  CE        12.5020    7.1310   32.3470 C.3   122  MET122      0.0692
    154  N         19.5830   11.9460   34.9330 N.3   126  TYR126     -0.1241
    155  CA        19.2760   12.9130   36.0370 C.3   126  TYR126      0.1605
    156  C         20.4950   13.1690   36.9380 C.2   126  TYR126      0.2264
    157  O         20.8680   14.3330   37.2470 O.2   126  TYR126     -0.2867
    158  CB        18.1570   12.3950   36.9210 C.3   126  TYR126      0.0534
    159  CG        16.8350   12.2640   36.1900 C.ar  126  TYR126     -0.0201
    160  CD1       15.8040   11.4840   36.7200 C.ar  126  TYR126     -0.0009
    161  CD2       16.6510   12.8800   34.9580 C.ar  126  TYR126     -0.0009
    162  CE1       14.6030   11.3270   36.0640 C.ar  126  TYR126      0.0417
    163  CE2       15.4340   12.7780   34.2870 C.ar  126  TYR126      0.0417
    164  CZ        14.4080   11.9770   34.8470 C.ar  126  TYR126      0.1957
    165  OH        13.1750   11.8620   34.2050 O.3   126  TYR126     -0.2866
    166  N         11.8820    6.9240   24.5470 N.3   204  HIS204     -0.1241
    167  CA        10.4640    7.2900   24.6060 C.3   204  HIS204      0.1621
    168  C          9.6240    6.5640   23.5380 C.2   204  HIS204      0.2264
    169  O          8.5010    6.1520   23.8050 O.2   204  HIS204     -0.2867
    170  CB        10.2720    8.8180   24.5080 C.3   204  HIS204      0.0745
    171  CG         8.8340    9.2470   24.4900 C.ar  204  HIS204      0.0817
    172  ND1        8.1360    9.5660   25.6360 N.ar  204  HIS204     -0.2268
    173  CD2        7.9930    9.4840   23.4620 C.ar  204  HIS204      0.1154
    174  CE1        6.9070    9.9350   25.3160 C.ar  204  HIS204      0.1986
    175  NE2        6.8040    9.9180   24.0000 N.ar  204  HIS204     -0.2212
    176  N          9.0070    3.3010   24.9360 N.3   207  MET207     -0.1245
    177  CA         7.9920    3.3660   26.0130 C.3   207  MET207      0.1570
    178  C          6.5730    3.4410   25.4440 C.2   207  MET207      0.2261
    179  O          5.6570    2.7990   25.9500 O.2   207  MET207     -0.2867
    180  CB         8.2380    4.5500   26.9850 C.3   207  MET207      0.0387
    181  CG         9.4820    4.3670   27.8730 C.3   207  MET207      0.0595
    182  SD        10.3650    5.9080   28.2920 S.3   207  MET207     -0.1393
    183  CE         9.1640    6.7600   29.0520 C.3   207  MET207      0.0692
    184  N          3.5420    1.0320   26.1270 N.3   211  TRP211     -0.1241
    185  CA         2.3120    1.5780   26.7040 C.3   211  TRP211      0.1605
    186  C          1.1110    1.2580   25.8080 C.2   211  TRP211      0.2264
    187  O          0.0120    1.0140   26.2960 O.2   211  TRP211     -0.2867
    188  CB         2.4120    3.0820   26.8750 C.3   211  TRP211      0.0550
    189  CG         3.1050    3.5090   28.1840 C.ar  211  TRP211      0.0003
    190  CD1        3.0440    2.8950   29.3920 C.ar  211  TRP211      0.0946
    191  CD2        3.9350    4.6800   28.3670 C.ar  211  TRP211      0.0152
    192  NE1        3.7460    3.6330   30.3460 N.ar  211  TRP211     -0.2442
    193  CE2        4.3320    4.7080   29.7250 C.ar  211  TRP211      0.0810
    194  CE3        4.4310    5.6610   27.4920 C.ar  211  TRP211      0.0012
    195  CZ2        5.1500    5.7330   30.2530 C.ar  211  TRP211      0.0191
    196  CZ3        5.2350    6.6770   28.0240 C.ar  211  TRP211      0.0001
    197  CH2        5.6200    6.6660   29.3740 C.ar  211  TRP211      0.0015
    198  N         -3.6260    8.0710   25.7390 N.3   218  PHE218     -0.1241
    199  CA        -2.9940    9.3930   25.7780 C.3   218  PHE218      0.1605
    200  C         -4.0210   10.4730   25.4680 C.2   218  PHE218      0.2264
    201  O         -5.0540   10.1970   24.8410 O.2   218  PHE218     -0.2867
    202  CB        -1.8850    9.4410   24.7140 C.3   218  PHE218      0.0534
    203  CG        -0.8130    8.4180   24.9420 C.ar  218  PHE218     -0.0203
    204  CD1       -0.9900    7.1160   24.5180 C.ar  218  PHE218     -0.0042
    205  CD2        0.3540    8.7440   25.6270 C.ar  218  PHE218     -0.0042
    206  CE1       -0.0040    6.1470   24.7370 C.ar  218  PHE218     -0.0003
    207  CE2        1.3220    7.7700   25.8930 C.ar  218  PHE218     -0.0003
    208  CZ         1.1350    6.4730   25.4590 C.ar  218  PHE218     -0.0000
    209  N         -1.1340   14.8750   22.9960 N.3   222  LEU222     -0.1245
    210  CA         0.0210   13.9500   22.8930 C.3   222  LEU222      0.1561
    211  C         -0.1390   13.0180   21.7120 C.2   222  LEU222      0.2260
    212  O          0.8360   12.6480   21.0560 O.2   222  LEU222     -0.2867
    213  CB         0.2030   13.1540   24.1860 C.3   222  LEU222      0.0270
    214  CG         0.4630   14.0990   25.3630 C.3   222  LEU222      0.0019
    215  CD1        0.5950   13.2910   26.6490 C.3   222  LEU222      0.0001
    216  CD2        1.7280   14.9820   25.1150 C.3   222  LEU222      0.0001
    217  N          2.8490   12.6630   18.9610 N.3   226  TRP226     -0.1241
    218  CA         3.5930   11.4000   18.7780 C.3   226  TRP226      0.1605
    219  C          2.9360   10.3950   17.8220 C.2   226  TRP226      0.2264
    220  O          3.2370    9.1990   17.8930 O.2   226  TRP226     -0.2867
    221  CB         3.8240   10.7580   20.1430 C.3   226  TRP226      0.0550
    222  CG         4.7650   11.6200   20.9940 C.ar  226  TRP226      0.0003
    223  CD1        5.8590   12.2780   20.5460 C.ar  226  TRP226      0.0946
    224  CD2        4.6510   11.9300   22.3880 C.ar  226  TRP226      0.0152
    225  NE1        6.4570   12.9650   21.5720 N.ar  226  TRP226     -0.2442
    226  CE2        5.7370   12.7570   22.7170 C.ar  226  TRP226      0.0810
    227  CE3        3.7730   11.5410   23.4050 C.ar  226  TRP226      0.0012
    228  CZ2        5.9240   13.2720   23.9950 C.ar  226  TRP226      0.0191
    229  CZ3        3.9770   12.0380   24.6870 C.ar  226  TRP226      0.0001
    230  CH2        5.0540   12.8650   24.9750 C.ar  226  TRP226      0.0015
@<TRIPOS>BOND
     1   219   220    2
     2   219   218    1
     3   218   217    1
     4   218   221    1
     5   221   222    1
     6   223   222   ar
     7   223   225   ar
     8   222   224   ar
     9   212   211    2
    10   225   226   ar
    11   211   210    1
    12   224   226   ar
    13   224   227   ar
    14   226   228   ar
    15   210   209    1
    16   210   213    1
    17   227   229   ar
    18   173   175   ar
    19   173   171   ar
    20   168   169    2
    21   168   167    1
    22   228   230   ar
    23   175   174   ar
    24   213   214    1
    25   171   170    1
    26   171   172   ar
    27   170   167    1
    28   204   206   ar
    29   204   203   ar
    30   166   167    1
    31   229   230   ar
    32   202   203    1
    33   202   199    1
    34   206   208   ar
    35   201   200    2
    36   176   177    1
    37   203   205   ar
    38   216   214    1
    39   174   172   ar
    40   214   215    1
    41   178   179    2
    42   178   177    1
    43   208   207   ar
    44   200   199    1
    45   205   207   ar
    46   198   199    1
    47   186   187    2
    48   186   185    1
    49   177   180    1
    50   184   185    1
    51    74    73    1
    52   185   188    1
    53   188   189    1
    54   180   181    1
    55    73    72    1
    56   194   196   ar
    57   194   191   ar
    58    67    68    1
    59   181   182    1
    60    83    81   ar
    61    83    85   ar
    62    81    80   ar
    63    60    59    2
    64   196   197   ar
    65   189   191   ar
    66   189   190   ar
    67    72    71    1
    68   182   183    1
    69    59    58    1
    70   191   193   ar
    71    71    68    1
    72    55    54    2
    73    68    69    1
    74    28    26   ar
    75    28    27   ar
    76    54    53    1
    77    75    69   am
    78    75    76    1
    79    80    79    1
    80    80    82   ar
    81    79    76    1
    82    85    84   ar
    83    56    53    1
    84   197   195   ar
    85   190   192   ar
    86    43    41    1
    87    64    66   ar
    88    64    62   ar
    89    26    24   ar
    90    69    70    2
    91   193   195   ar
    92   193   192   ar
    93    58    57    1
    94    58    61    1
    95    27    25   ar
    96    76    77    1
    97    66    65   ar
    98    53    52    1
    99    61    62    1
   100    82    84   ar
   101    40    39    2
   102    62    63   ar
   103    42    41    1
   104    77    78    2
   105    41    38    1
   106    24    23   ar
   107    65    63   ar
   108    38    39    1
   109    38    37    1
   110    25    23   ar
   111    52    46   am
   112    86    87    1
   113    23    22    1
   114   144   142    1
   115    47    46    2
   116   139   140    1
   117   139   142    1
   118   139   138    1
   119    90    87    1
   120    90    91    1
   121    46    45    1
   122   143   142    1
   123   143   145    1
   124    32    31    2
   125    37    31   am
   126   140   141    2
   127   153   152    1
   128   146   147    1
   129    87    88    1
   130   147   150    1
   131   147   148    1
   132    31    30    1
   133    21    20    2
   134   150   151    1
   135   102   101    1
   136    22    19    1
   137    91    92    1
   138    44    45    1
   139   151   152    1
   140    45    48    1
   141    97    88   am
   142    97    98    1
   143    88    89    2
   144    20    19    1
   145    92    93    1
   146    33    30    1
   147    33    34    1
   148    19    18    1
   149   148   149    2
   150   101    98    1
   151    30    29    1
   152   165   164    1
   153   163   164   ar
   154   163   161   ar
   155     8     7    2
   156     9     7   am
   157    48    49    1
   158    98    99    1
   159     7     6    1
   160    93    94    2
   161   164   162   ar
   162   154   155    1
   163   161   159   ar
   164    35    34    1
   165     6     5    1
   166    95    94    1
   167     5     2    1
   168    99   100    2
   169    94    96    1
   170    34    36    1
   171    49    50    1
   172     1     2    1
   173   155   158    1
   174   155   156    1
   175   162   160   ar
   176   159   160   ar
   177   159   158    1
   178   136   134    1
   179     2     3    1
   180   133   132    2
   181   156   157    2
   182    50    51    1
   183   135   137    1
   184   135   134    1
   185    16    17    1
   186    16    15    1
   187   134   131    1
   188   108   110    1
   189   108   107    1
   190   132   131    1
   191   131   130    1
   192     3     4    2
   193   103   104    1
   194   119   117   ar
   195   119   121   ar
   196   117   116   ar
   197   107   104    1
   198   107   109    1
   199    11    12    1
   200    11    10    1
   201    11    14    1
   202   104   105    1
   203   121   120   ar
   204    15    14    1
   205    12    13    2
   206   128   127    1
   207   111   105   am
   208   111   112    1
   209   116   115    1
   210   116   118   ar
   211   115   112    1
   212   129   127    1
   213   105   106    2
   214   127   126    1
   215   112   113    1
   216   120   118   ar
   217   125   124    2
   218   113   114    2
   219   124   123    1
   220   126   123    1
   221   123   122    1
