@<TRIPOS>MOLECULE
tmp/3belA00.pdb
 193 179 0 0 0
SMALL
GASTEIGER

@<TRIPOS>ATOM
      1  N         17.7400   25.6200   88.0820 N.3    17  LEU17      -0.1231
      2  CA        17.7670   26.7760   87.1940 C.3    17  LEU17       0.1696
      3  C         19.2150   27.1470   86.9040 C.2    17  LEU17       0.2631
      4  O         19.6210   27.2100   85.7500 O.2    17  LEU17      -0.2714
      5  CB        17.0240   27.9610   87.8100 C.3    17  LEU17       0.0284
      6  CG        15.4970   27.9130   87.7110 C.3    17  LEU17       0.0019
      7  CD1       14.8810   29.0820   88.4520 C.3    17  LEU17       0.0001
      8  CD2       15.0840   27.9450   86.2530 C.3    17  LEU17       0.0001
      9  N         20.0060   27.3720   87.9450 N.am   18  GLY18      -0.1732
     10  CA        21.3960   27.7190   87.7180 C.2    18  GLY18       0.1340
     11  C         22.2170   27.9760   88.9620 C.2    18  GLY18       0.2521
     12  O         21.6900   28.3560   90.0050 O.2    18  GLY18      -0.2816
     13  N         20.0230   28.1100   92.5280 N.3    25  VAL25      -0.1245
     14  CA        18.6120   28.4410   92.3970 C.3    25  VAL25       0.1561
     15  C         17.8920   27.3270   91.6600 C.2    25  VAL25       0.2260
     16  O         18.3420   26.8760   90.6070 O.2    25  VAL25      -0.2867
     17  CB        18.3890   29.7510   91.6130 C.3    25  VAL25       0.0252
     18  CG1       16.9020   30.0430   91.5300 C.3    25  VAL25       0.0019
     19  CG2       19.1180   30.9030   92.2850 C.3    25  VAL25       0.0019
     20  N         10.7570   30.2560   92.5700 N.3    38  ALA38      -0.1245
     21  CA        12.1910   30.1600   92.3960 C.3    38  ALA38       0.1562
     22  C         12.6840   29.9450   93.8180 C.2    38  ALA38       0.2260
     23  O         12.3070   30.6850   94.7320 O.2    38  ALA38      -0.2867
     24  CB        12.7480   31.4500   91.8230 C.3    38  ALA38       0.0290
     25  N         16.1290   29.5770   96.1010 N.3    40  LYS40      -0.1245
     26  CA        17.5830   29.6980   96.1740 C.3    40  LYS40       0.1561
     27  C         18.0920   29.0710   97.4710 C.2    40  LYS40       0.2260
     28  O         17.7100   29.4860   98.5640 O.2    40  LYS40      -0.2867
     29  CB        18.0280   31.1690   96.1040 C.3    40  LYS40       0.0271
     30  CG        19.5390   31.3640   96.2970 C.3    40  LYS40       0.0035
     31  CD        19.9980   32.8130   96.0840 C.3    40  LYS40       0.0206
     32  CE        20.3720   33.0650   94.6390 C.3    40  LYS40       0.1093
     33  NZ        20.9370   34.4190   94.4080 N.3    40  LYS40      -0.1314
     34  N         13.9460   41.9880  102.6380 N.3    55  MET55      -0.1245
     35  CA        13.7610   41.4630  101.2850 C.3    55  MET55       0.1570
     36  C         12.2980   41.1410  100.9900 C.2    55  MET55       0.2261
     37  O         11.8770   41.1490   99.8370 O.2    55  MET55      -0.2867
     38  CB        14.6080   40.1990  101.0820 C.3    55  MET55       0.0387
     39  CG        16.1110   40.4190  101.2090 C.3    55  MET55       0.0595
     40  SD        17.0340   38.8720  101.0780 S.3    55  MET55      -0.1393
     41  CE        17.6780   38.7160  102.7190 C.3    55  MET55       0.0692
     42  N         11.8960   42.4950   92.8590 N.3    64  CYS64      -0.1221
     43  CA        11.3760   41.2120   93.2840 C.3    64  CYS64       0.1808
     44  C         11.2110   41.2510   94.7840 C.2    64  CYS64       0.2601
     45  O         11.9520   41.9430   95.4780 O.2    64  CYS64      -0.2717
     46  CB        12.3220   40.0780   92.9020 C.3    64  CYS64       0.0970
     47  SG        12.3450   39.7430   91.1380 S.3    64  CYS64      -0.0800
     48  N         10.2260   40.5070   95.2700 N.am   65  ARG65      -0.1965
     49  CA         9.9300   40.4180   96.6920 C.3    65  ARG65       0.1729
     50  C         10.1610   38.9820   97.1820 C.2    65  ARG65       0.2616
     51  O          9.8270   38.0190   96.4860 O.2    65  ARG65      -0.2715
     52  CB         8.4700   40.8200   96.9100 C.3    65  ARG65       0.0348
     53  CG         7.9240   40.6390   98.3070 C.3    65  ARG65       0.0492
     54  CD         6.4080   40.8260   98.2630 C.3    65  ARG65       0.2205
     55  NE         5.7710   40.6390   99.5610 N.pl3  65  ARG65      -0.0865
     56  CZ         5.8000   39.5100  100.2650 C.cat  65  ARG65       0.5346
     57  NH1        6.4390   38.4440   99.8030 N.pl3  65  ARG65       0.1354
     58  NH2        5.1850   39.4490  101.4380 N.pl3  65  ARG65       0.1354
     59  N         10.7540   38.8410   98.3630 N.am   66  LEU66      -0.1977
     60  CA        10.9860   37.5170   98.9470 C.3    66  LEU66       0.1596
     61  C          9.6360   37.1110   99.5350 C.2    66  LEU66       0.2287
     62  O          9.0420   37.8880  100.2790 O.2    66  LEU66      -0.2864
     63  CB        12.0360   37.6070  100.0560 C.3    66  LEU66       0.0297
     64  CG        12.3680   36.3190  100.8080 C.3    66  LEU66       0.0022
     65  CD1       13.0650   35.3270   99.8720 C.3    66  LEU66       0.0001
     66  CD2       13.2560   36.6510  102.0040 C.3    66  LEU66       0.0001
     67  N         15.5990   30.4560  100.1840 N.3    77  LEU77      -0.1245
     68  CA        14.8480   31.6780   99.9490 C.3    77  LEU77       0.1561
     69  C         13.8240   31.4100   98.8510 C.2    77  LEU77       0.2260
     70  O         14.1800   30.9640   97.7640 O.2    77  LEU77      -0.2867
     71  CB        15.8220   32.7950   99.5620 C.3    77  LEU77       0.0270
     72  CG        16.8930   33.0280  100.6430 C.3    77  LEU77       0.0019
     73  CD1       17.9420   34.0210  100.1770 C.3    77  LEU77       0.0001
     74  CD2       16.2230   33.5270  101.9160 C.3    77  LEU77       0.0001
     75  N         10.8470   32.8010   96.2990 N.3    79  THR79      -0.1203
     76  CA        10.2970   33.9570   95.6100 C.3    79  THR79       0.1994
     77  C          9.4900   33.4930   94.3880 C.2    79  THR79       0.2618
     78  O          9.5660   32.3300   93.9860 O.2    79  THR79      -0.2717
     79  CB        11.4430   34.9040   95.1760 C.3    79  THR79       0.1784
     80  OG1       10.8950   36.1450   94.7260 O.3    79  THR79      -0.2211
     81  CG2       12.2790   34.2700   94.0540 C.3    79  THR79       0.0376
     82  N          8.7220   34.4040   93.7990 N.am   80  GLN80      -0.1965
     83  CA         7.9010   34.0820   92.6400 C.3    80  GLN80       0.1733
     84  C          8.7660   33.7940   91.4150 C.2    80  GLN80       0.2616
     85  O          9.7270   34.5160   91.1330 O.2    80  GLN80      -0.2715
     86  CB         6.9500   35.2390   92.3380 C.3    80  GLN80       0.0408
     87  CG         6.0910   35.0290   91.1060 C.3    80  GLN80       0.0908
     88  CD         5.0850   36.1510   90.8850 C.2    80  GLN80       0.2608
     89  OE1        4.2970   36.1060   89.9410 O.2    80  GLN80      -0.2717
     90  NE2        5.1080   37.1650   91.7550 N.am   80  GLN80      -0.0878
     91  N          8.4220   32.7410   90.6810 N.am   81  LEU81      -0.1963
     92  CA         9.1810   32.3710   89.4910 C.3    81  LEU81       0.1728
     93  C          8.9570   33.3330   88.3210 C.2    81  LEU81       0.2616
     94  O          7.8070   33.5970   87.9340 O.2    81  LEU81      -0.2715
     95  CB         8.7980   30.9640   89.0400 C.3    81  LEU81       0.0311
     96  CG         9.4770   30.4680   87.7580 C.3    81  LEU81       0.0022
     97  CD1       10.9670   30.2510   88.0200 C.3    81  LEU81       0.0001
     98  CD2        8.8220   29.1700   87.2880 C.3    81  LEU81       0.0001
     99  N         10.0540   33.8530   87.7670 N.am   82  MET82      -0.1977
    100  CA         9.9880   34.7410   86.6090 C.3    82  MET82       0.1605
    101  C         10.2410   33.8180   85.4060 C.2    82  MET82       0.2287
    102  O         11.3710   33.4000   85.1490 O.2    82  MET82      -0.2864
    103  CB        11.0530   35.8420   86.7110 C.3    82  MET82       0.0413
    104  CG        10.8390   36.8540   87.8490 C.3    82  MET82       0.0598
    105  SD         9.3450   37.9250   87.7130 S.3    82  MET82      -0.1393
    106  CE         8.4070   37.4110   89.1300 C.3    82  MET82       0.0692
    107  N         13.1960   34.1810   82.6500 N.3    85  GLY85      -0.1210
    108  CA        14.5930   34.1060   83.0530 C.3    85  GLY85       0.1956
    109  C         15.1910   35.4720   83.3200 C.2    85  GLY85       0.2612
    110  O         14.4560   36.4550   83.4670 O.2    85  GLY85      -0.2717
    111  N         16.5190   35.5510   83.3860 N.am   86  CYS86      -0.1970
    112  CA        17.1770   36.8320   83.6410 C.3    86  CYS86       0.1712
    113  C         17.3680   37.6320   82.3530 C.2    86  CYS86       0.2296
    114  O         17.4710   37.0640   81.2670 O.2    86  CYS86      -0.2864
    115  CB        18.5300   36.6220   84.3170 C.3    86  CYS86       0.0983
    116  SG        19.7650   35.8430   83.2760 S.3    86  CYS86      -0.0798
    117  N         20.5160   36.8200   79.8190 N.3    89  ASP89      -0.1239
    118  CA        20.2800   35.7590   78.8500 C.3    89  ASP89       0.1674
    119  C         19.2110   36.1620   77.8420 C.2    89  ASP89       0.2266
    120  O         19.2830   35.7720   76.6830 O.2    89  ASP89      -0.2867
    121  CB        19.8640   34.4590   79.5410 C.3    89  ASP89       0.1410
    122  CG        20.9560   33.8910   80.4370 C.2    89  ASP89       0.3668
    123  OD1       22.1510   34.0280   80.0890 O.co2  89  ASP89      -0.2456
    124  OD2       20.6110   33.2940   81.4830 O.co2  89  ASP89      -0.2456
    125  N         22.4670   40.0590   85.0630 N.3   130  ARG130     -0.1231
    126  CA        22.1250   38.6910   85.4860 C.3   130  ARG130      0.1694
    127  C         21.2030   38.7180   86.6970 C.2   130  ARG130      0.2592
    128  O         20.5720   37.7140   87.0280 O.2   130  ARG130     -0.2718
    129  CB        23.3920   37.8820   85.8320 C.3   130  ARG130      0.0321
    130  CG        24.2080   38.4830   86.9820 C.3   130  ARG130      0.0489
    131  CD        25.4380   37.6490   87.3740 C.3   130  ARG130      0.2205
    132  NE        26.1570   38.2910   88.4760 N.pl3 130  ARG130     -0.0865
    133  CZ        27.1070   39.2140   88.3230 C.cat 130  ARG130      0.5346
    134  NH1       27.4800   39.6060   87.1090 N.pl3 130  ARG130      0.1354
    135  NH2       27.6630   39.7730   89.3920 N.pl3 130  ARG130      0.1354
    136  N         21.1300   39.8690   87.3570 N.am  131  ASN131     -0.1974
    137  CA        20.2720   40.0170   88.5200 C.3   131  ASN131      0.1688
    138  C         19.0390   40.8600   88.2350 C.2   131  ASN131      0.2292
    139  O         18.3970   41.3880   89.1500 O.2   131  ASN131     -0.2864
    140  CB        21.0470   40.5920   89.7130 C.3   131  ASN131      0.1181
    141  CG        21.9880   39.5760   90.3160 C.2   131  ASN131      0.2629
    142  OD1       21.6600   38.3890   90.3910 O.2   131  ASN131     -0.2716
    143  ND2       23.1610   40.0280   90.7580 N.am  131  ASN131     -0.0877
    144  N         15.4710   40.3850   86.3580 N.3   133  LEU133     -0.1245
    145  CA        14.6290   39.3060   85.8320 C.3   133  LEU133      0.1561
    146  C         13.5320   39.8200   84.9010 C.2   133  LEU133      0.2260
    147  O         13.1100   40.9750   84.9860 O.2   133  LEU133     -0.2867
    148  CB        13.9990   38.5090   86.9850 C.3   133  LEU133      0.0270
    149  CG        14.9390   37.7680   87.9410 C.3   133  LEU133      0.0019
    150  CD1       14.1230   36.9990   88.9610 C.3   133  LEU133      0.0001
    151  CD2       15.8600   36.8090   87.1620 C.3   133  LEU133      0.0001
    152  N         16.4620   41.8800   91.3890 N.3   143  THR143     -0.1203
    153  CA        16.4370   40.8770   92.4340 C.3   143  THR143      0.1994
    154  C         17.8200   40.6670   93.0400 C.2   143  THR143      0.2618
    155  O         18.7980   41.2500   92.5830 O.2   143  THR143     -0.2717
    156  CB        15.9180   39.5230   91.9020 C.3   143  THR143      0.1784
    157  OG1       15.7180   38.6360   93.0080 O.3   143  THR143     -0.2211
    158  CG2       16.9240   38.8880   90.9490 C.3   143  THR143      0.0376
    159  N         17.8780   39.8440   94.0840 N.am  144  ASP144     -0.1959
    160  CA        19.1260   39.4990   94.7550 C.3   144  ASP144      0.1840
    161  C         19.7760   40.6230   95.5730 C.2   144  ASP144      0.2622
    162  O         20.9460   40.5340   95.9310 O.2   144  ASP144     -0.2715
    163  CB        20.1200   38.9510   93.7200 C.3   144  ASP144      0.1450
    164  CG        20.8560   37.7110   94.2120 C.2   144  ASP144      0.3671
    165  OD1       20.2940   36.9570   95.0400 O.co2 144  ASP144     -0.2456
    166  OD2       21.9970   37.4810   93.7550 O.co2 144  ASP144     -0.2456
    167  N         19.0270   41.6780   95.8730 N.am  145  PHE145     -0.1974
    168  CA        19.5990   42.7600   96.6680 C.3   145  PHE145      0.1639
    169  C         19.7440   42.3010   98.1150 C.2   145  PHE145      0.2290
    170  O         19.0080   41.4280   98.5780 O.2   145  PHE145     -0.2864
    171  CB        18.7230   44.0190   96.5990 C.3   145  PHE145      0.0560
    172  CG        17.2590   43.7660   96.8540 C.ar  145  PHE145     -0.0200
    173  CD1       16.4000   43.4440   95.8040 C.ar  145  PHE145     -0.0042
    174  CD2       16.7420   43.8450   98.1390 C.ar  145  PHE145     -0.0042
    175  CE1       15.0460   43.2070   96.0300 C.ar  145  PHE145     -0.0003
    176  CE2       15.3820   43.6080   98.3820 C.ar  145  PHE145     -0.0003
    177  CZ        14.5340   43.2880   97.3240 C.ar  145  PHE145     -0.0000
    178  N         21.6560   40.2390   99.6630 N.3   147  LEU147     -0.1245
    179  CA        22.4000   39.0140   99.9300 C.3   147  LEU147      0.1561
    180  C         23.8890   39.2940  100.1080 C.2   147  LEU147      0.2260
    181  O         24.5340   38.7150  100.9800 O.2   147  LEU147     -0.2867
    182  CB        22.2010   37.9890   98.8040 C.3   147  LEU147      0.0270
    183  CG        20.9260   37.1380   98.8460 C.3   147  LEU147      0.0019
    184  CD1       20.9460   36.1440   97.6960 C.3   147  LEU147      0.0001
    185  CD2       20.8300   36.3940  100.1750 C.3   147  LEU147      0.0001
    186  N         10.3470   26.4810   80.8940 N.3   274  MET274     -0.1245
    187  CA         9.9380   26.4580   82.2940 C.3   274  MET274      0.1570
    188  C          8.8360   25.4280   82.5040 C.2   274  MET274      0.2261
    189  O          8.5130   25.0810   83.6390 O.2   274  MET274     -0.2867
    190  CB         9.4320   27.8340   82.7280 C.3   274  MET274      0.0387
    191  CG        10.4770   28.9390   82.6880 C.3   274  MET274      0.0595
    192  SD        11.8430   28.6800   83.8470 S.3   274  MET274     -0.1393
    193  CE        13.0620   28.0250   82.7820 C.3   274  MET274      0.0692
@<TRIPOS>BOND
     1   120   119    2
     2   119   118    1
     3   118   121    1
     4   118   117    1
     5   121   122    1
     6   123   122   ar
     7   122   124   ar
     8   186   187    1
     9   114   113    2
    10   187   188    1
    11   187   190    1
    12   113   112    1
    13   188   189    2
    14   107   108    1
    15   191   190    1
    16   191   192    1
    17   193   192    1
    18   108   109    1
    19   116   115    1
    20   109   111   am
    21   109   110    2
    22   111   112    1
    23   112   115    1
    24   146   147    2
    25   146   145    1
    26   125   126    1
    27   102   101    2
    28   101   100    1
    29   126   129    1
    30   126   127    1
    31     4     3    2
    32   129   130    1
    33   145   144    1
    34   145   148    1
    35     8     6    1
    36   100   103    1
    37   100    99    1
    38   127   128    2
    39   127   136   am
    40   103   104    1
    41     3     2    1
    42     3     9    1
    43   130   131    1
    44   148   149    1
    45   134   133    1
    46   151   149    1
    47     2     5    1
    48     2     1    1
    49    98    96    1
    50   136   137    1
    51   131   132    1
    52     6     5    1
    53     6     7    1
    54   105   104    1
    55   105   106    1
    56    10     9    2
    57    10    11    1
    58    96    97    1
    59    96    95    1
    60    99    93   am
    61    94    93    2
    62   149   150    1
    63   138   137    1
    64   138   139    2
    65    93    92    1
    66   133   132    2
    67   133   135    1
    68   137   140    1
    69    11    12    2
    70    95    92    1
    71    92    91    1
    72   140   141    1
    73    89    88    2
    74   141   142    2
    75   141   143   am
    76    16    15    2
    77    91    84   am
    78    88    87    1
    79    88    90   am
    80   158   156    1
    81    87    86    1
    82    85    84    2
    83    47    46    1
    84   152   153    1
    85    84    83    1
    86    18    17    1
    87    17    19    1
    88    17    14    1
    89    15    14    1
    90    24    21    1
    91   156   153    1
    92   156   157    1
    93    86    83    1
    94    21    20    1
    95    21    22    1
    96    14    13    1
    97   153   154    1
    98   155   154    2
    99    83    82    1
   100    42    43    1
   101    46    43    1
   102   154   159   am
   103    43    44    1
   104   163   164    1
   105   163   160    1
   106   166   164   ar
   107    82    77   am
   108    22    23    2
   109    78    77    2
   110    81    79    1
   111   159   160    1
   112   164   165   ar
   113    77    76    1
   114    33    32    1
   115    32    31    1
   116    80    79    1
   117   160   161    1
   118    44    48   am
   119    44    45    2
   120    79    76    1
   121    48    49    1
   122   161   167   am
   123   161   162    2
   124    76    75    1
   125   173   175   ar
   126   173   172   ar
   127   167   168    1
   128   175   177   ar
   129    31    30    1
   130    25    26    1
   131    29    26    1
   132    29    30    1
   133    26    27    1
   134    51    50    2
   135   171   168    1
   136   171   172    1
   137   168   169    1
   138    49    52    1
   139    49    50    1
   140   172   174   ar
   141    52    53    1
   142    50    59   am
   143   177   176   ar
   144    27    28    2
   145   184   183    1
   146    70    69    2
   147   169   170    2
   148   174   176   ar
   149    54    53    1
   150    54    55    1
   151    59    60    1
   152   182   183    1
   153   182   179    1
   154   183   185    1
   155    69    68    1
   156    60    61    1
   157    60    63    1
   158    61    62    2
   159    55    56    2
   160    71    68    1
   161    71    72    1
   162   178   179    1
   163    57    56    1
   164    37    36    2
   165    65    64    1
   166   179   180    1
   167    68    67    1
   168    63    64    1
   169   180   181    2
   170    73    72    1
   171    56    58    1
   172    72    74    1
   173    64    66    1
   174    36    35    1
   175    40    39    1
   176    40    41    1
   177    38    39    1
   178    38    35    1
   179    35    34    1
