@<TRIPOS>MOLECULE
tmp/3bemB01.pdb
 108 101 0 0 0
SMALL
GASTEIGER

@<TRIPOS>ATOM
      1  N         11.5740   -8.6000   39.6640 N.3    14  ARG14      -0.1231
      2  CA        10.1860   -8.1340   39.8610 C.3    14  ARG14       0.1694
      3  C          9.5990   -7.5700   38.5700 C.2    14  ARG14       0.2592
      4  O         10.0940   -6.5960   38.0380 O.2    14  ARG14      -0.2718
      5  CB        10.1130   -7.0920   40.9600 C.3    14  ARG14       0.0321
      6  CG         8.7050   -6.6550   41.3020 C.3    14  ARG14       0.0489
      7  CD         8.5440   -5.1870   41.6520 C.3    14  ARG14       0.2205
      8  NE         8.9150   -4.3160   40.5150 N.pl3  14  ARG14      -0.0865
      9  CZ         8.1310   -4.0510   39.4760 C.cat  14  ARG14       0.5346
     10  NH1        6.8770   -4.5500   39.3660 N.pl3  14  ARG14       0.1354
     11  NH2        8.6260   -3.2790   38.5270 N.pl3  14  ARG14       0.1354
     12  N          8.5000   -8.1650   38.0920 N.am   15  ARG15      -0.1966
     13  CA         7.7900   -7.7240   36.8870 C.3    15  ARG15       0.1729
     14  C          6.3350   -7.5700   37.2490 C.2    15  ARG15       0.2616
     15  O          5.8000   -8.4020   37.9850 O.2    15  ARG15      -0.2715
     16  CB         7.9280   -8.7480   35.7540 C.3    15  ARG15       0.0348
     17  CG         9.3410   -8.8190   35.1990 C.3    15  ARG15       0.0492
     18  CD         9.7530   -7.5400   34.4630 C.3    15  ARG15       0.2205
     19  NE         8.6990   -7.1000   33.5490 N.pl3  15  ARG15      -0.0865
     20  CZ         8.4890   -7.6240   32.3490 C.cat  15  ARG15       0.5346
     21  NH1        9.3080   -8.5600   31.8710 N.pl3  15  ARG15       0.1354
     22  NH2        7.4860   -7.1790   31.6150 N.pl3  15  ARG15       0.1354
     23  N          5.6840   -6.5350   36.7470 N.am   16  SER16      -0.1950
     24  CA         4.2590   -6.3350   36.9840 C.3    16  SER16       0.1924
     25  C          3.5550   -7.4120   36.1680 C.2    16  SER16       0.2314
     26  O          3.7610   -7.5070   34.9350 O.2    16  SER16      -0.2863
     27  CB         3.8110   -4.9420   36.5800 C.3    16  SER16       0.2116
     28  OG         4.4160   -3.9640   37.4120 O.3    16  SER16      -0.2180
     29  N        -10.7470   -5.8170   33.9750 N.3    70  GLN70      -0.1245
     30  CA        -9.4770   -6.5200   33.9350 C.3    70  GLN70       0.1566
     31  C         -9.5830   -7.9140   34.5480 C.2    70  GLN70       0.2260
     32  O         -9.7850   -8.1050   35.7510 O.2    70  GLN70      -0.2867
     33  CB        -8.4110   -5.7040   34.6330 C.3    70  GLN70       0.0367
     34  CG        -8.1380   -4.3650   33.9550 C.3    70  GLN70       0.0905
     35  CD        -6.9620   -3.6630   34.5970 C.2    70  GLN70       0.2608
     36  OE1       -5.8260   -4.1180   34.4630 O.2    70  GLN70      -0.2717
     37  NE2       -7.2350   -2.5880   35.3550 N.am   70  GLN70      -0.0878
     38  N         -7.4020  -10.1230   35.1970 N.3    72  LYS72      -0.1245
     39  CA        -6.4400  -10.5080   36.2420 C.3    72  LYS72       0.1561
     40  C         -6.9940  -10.4310   37.6900 C.2    72  LYS72       0.2260
     41  O         -6.4940  -11.1310   38.5580 O.2    72  LYS72      -0.2867
     42  CB        -5.0970   -9.7550   36.0590 C.3    72  LYS72       0.0271
     43  CG        -5.1560   -8.3130   36.3680 C.3    72  LYS72       0.0035
     44  CD        -3.7690   -7.6040   36.0740 C.3    72  LYS72       0.0206
     45  CE        -3.6200   -7.2400   34.6610 C.3    72  LYS72       0.1093
     46  NZ        -2.2420   -6.8160   34.4900 N.3    72  LYS72      -0.1314
     47  N          0.7480   -7.2350   40.4600 N.3   152  CYS152     -0.1221
     48  CA         0.5070   -6.1550   39.4910 C.3   152  CYS152      0.1794
     49  C         -0.1760   -5.0400   40.2510 C.2   152  CYS152      0.2443
     50  O         -1.2750   -5.2380   40.7360 O.2   152  CYS152     -0.2733
     51  CB        -0.3230   -6.6300   38.3290 C.3   152  CYS152      0.0970
     52  SG        -0.3290   -5.3250   37.0550 S.3   152  CYS152     -0.0800
     53  N          0.4510   -3.8700   40.3740 N.am  153  PRO153     -0.2729
     54  CA        -0.2040   -2.6840   40.9110 C.3   153  PRO153      0.1401
     55  C         -1.1530   -2.1730   39.8640 C.2   153  PRO153      0.2269
     56  O         -0.8790   -2.3050   38.6600 O.2   153  PRO153     -0.2865
     57  CB         0.9300   -1.7250   41.1370 C.3   153  PRO153      0.0296
     58  CG         1.9290   -2.1010   40.1130 C.3   153  PRO153      0.0237
     59  CD         1.8050   -3.5700   39.8570 C.3   153  PRO153      0.0939
     60  N         -4.3090    0.9200   38.9160 N.3   154  ILE154     -0.1231
     61  CA        -5.1200    2.1140   39.1350 C.3   154  ILE154      0.1692
     62  C         -6.3200    2.1280   38.2000 C.2   154  ILE154      0.2592
     63  O         -7.1880    2.9990   38.2980 O.2   154  ILE154     -0.2718
     64  CB        -4.2810    3.3940   38.9620 C.3   154  ILE154      0.0266
     65  CG1       -4.9560    4.6110   39.6100 C.3   154  ILE154      0.0019
     66  CG2       -3.9530    3.6490   37.4630 C.3   154  ILE154      0.0020
     67  CD1       -5.1910    4.5030   41.0500 C.3   154  ILE154      0.0001
     68  N         -6.3880    1.1520   37.3010 N.am  155  GLY155     -0.1957
     69  CA        -7.4930    0.9880   36.3870 C.3   155  GLY155      0.1869
     70  C         -8.7580    0.4230   36.9860 C.2   155  GLY155      0.2309
     71  O         -9.1410   -0.6610   36.6810 O.2   155  GLY155     -0.2863
     72  N          6.2010  -10.7100   28.2370 N.3   186  ARG186     -0.1245
     73  CA         6.8760   -9.7400   27.3760 C.3   186  ARG186      0.1563
     74  C          8.0420   -9.0990   28.1320 C.2   186  ARG186      0.2260
     75  O          8.0140   -8.9920   29.3680 O.2   186  ARG186     -0.2867
     76  CB         5.9100   -8.6510   26.8980 C.3   186  ARG186      0.0307
     77  CG         4.6410   -8.3880   27.6490 C.3   186  ARG186      0.0489
     78  CD         3.8920   -7.1990   27.0220 C.3   186  ARG186      0.2205
     79  NE         4.6600   -5.9790   27.2500 N.pl3 186  ARG186     -0.0865
     80  CZ         5.1130   -5.5310   28.4380 C.cat 186  ARG186      0.5346
     81  NH1        4.9150   -6.1430   29.6100 N.pl3 186  ARG186      0.1354
     82  NH2        5.8060   -4.3710   28.3570 N.pl3 186  ARG186      0.1354
     83  N         10.5430   -6.2530   29.6350 N.3   188  ARG188     -0.1231
     84  CA        10.2720   -5.0590   30.4050 C.3   188  ARG188      0.1694
     85  C         10.1350   -3.8460   29.4900 C.2   188  ARG188      0.2592
     86  O         10.9150   -3.6770   28.5700 O.2   188  ARG188     -0.2718
     87  CB        11.4160   -4.8220   31.3870 C.3   188  ARG188      0.0321
     88  CG        10.9360   -4.0580   32.5580 C.3   188  ARG188      0.0489
     89  CD        12.0200   -3.6690   33.4880 C.3   188  ARG188      0.2205
     90  NE        12.4590   -4.7010   34.4190 N.pl3 188  ARG188     -0.0865
     91  CZ        11.8770   -5.0050   35.5750 C.cat 188  ARG188      0.5346
     92  NH1       10.6960   -4.5050   35.9240 N.pl3 188  ARG188      0.1354
     93  NH2       12.4430   -5.9250   36.3480 N.pl3 188  ARG188      0.1354
     94  N          9.1610   -2.9980   29.7620 N.am  189  GLY189     -0.1957
     95  CA         8.9550   -1.8030   28.9650 C.3   189  GLY189      0.1869
     96  C         10.1450   -0.8590   29.0370 C.2   189  GLY189      0.2309
     97  O         10.8880   -0.8350   30.0500 O.2   189  GLY189     -0.2863
     98  N         12.7280    1.9060   29.6490 N.3   191  ARG191     -0.1245
     99  CA        13.0580    2.8310   30.7430 C.3   191  ARG191      0.1563
    100  C         13.9400    3.9960   30.3600 C.2   191  ARG191      0.2260
    101  O         14.9850    3.8310   29.7210 O.2   191  ARG191     -0.2867
    102  CB        13.7130    2.0500   31.9110 C.3   191  ARG191      0.0307
    103  CG        12.8090    0.9890   32.5430 C.3   191  ARG191      0.0489
    104  CD        11.5230    1.5890   33.0360 C.3   191  ARG191      0.2205
    105  NE        10.9570    0.8970   34.2030 N.pl3 191  ARG191     -0.0865
    106  CZ        10.1680   -0.1720   34.1640 C.cat 191  ARG191      0.5346
    107  NH1        9.8170   -0.7180   33.0130 N.pl3 191  ARG191      0.1354
    108  NH2        9.7240   -0.6690   35.3490 N.pl3 191  ARG191      0.1354
@<TRIPOS>BOND
     1    76    73    1
     2    76    77    1
     3    78    79    1
     4    78    77    1
     5    79    80    2
     6    73    74    1
     7    73    72    1
     8    74    75    2
     9    82    80    1
    10    80    81    1
    11    86    85    2
    12    95    96    1
    13    95    94    1
    14    96    97    2
    15    85    94   am
    16    85    84    1
    17    83    84    1
    18    98    99    1
    19   101   100    2
    20   100    99    1
    21    84    87    1
    22    99   102    1
    23    87    88    1
    24    22    20    1
    25    21    20    1
    26   102   103    1
    27    20    19    2
    28   103   104    1
    29    88    89    1
    30   107   106    1
    31   104   105    1
    32    89    90    1
    33    19    18    1
    34    30    29    1
    35    30    31    1
    36    30    33    1
    37    34    35    1
    38    34    33    1
    39   106   105    2
    40   106   108    1
    41    90    91    2
    42    36    35    2
    43    18    17    1
    44    46    45    1
    45    31    32    2
    46    35    37   am
    47    45    44    1
    48    26    25    2
    49    38    39    1
    50    17    16    1
    51    91    92    1
    52    91    93    1
    53    16    13    1
    54    42    39    1
    55    42    43    1
    56    44    43    1
    57    25    24    1
    58    39    40    1
    59    69    70    1
    60    69    68    1
    61    27    24    1
    62    27    28    1
    63    71    70    2
    64    23    24    1
    65    23    14   am
    66    13    14    1
    67    13    12    1
    68    52    51    1
    69    14    15    2
    70    68    62   am
    71    66    64    1
    72    40    41    2
    73     4     3    2
    74    12     3   am
    75    62    63    2
    76    62    61    1
    77    51    48    1
    78    11     9    1
    79     3     2    1
    80    56    55    2
    81    60    61    1
    82    64    61    1
    83    64    65    1
    84    10     9    1
    85     9     8    2
    86    48    49    1
    87    48    47    1
    88    65    67    1
    89     1     2    1
    90    59    58    1
    91    59    53    1
    92     2     5    1
    93    55    54    1
    94    58    57    1
    95    49    53   am
    96    49    50    2
    97    53    54    1
    98     8     7    1
    99    54    57    1
   100     5     6    1
   101     6     7    1
