@<TRIPOS>MOLECULE
tmp/3bemB00.pdb
 86 84 0 0 0
SMALL
GASTEIGER

@<TRIPOS>ATOM
      1  N          6.7870   -2.2760   58.9050 N.3    39  LEU39      -0.1231
      2  CA         8.0460   -1.5650   59.1670 C.3    39  LEU39       0.1693
      3  C          8.3690   -0.5020   58.1400 C.2    39  LEU39       0.2592
      4  O          9.4670    0.0920   58.1770 O.2    39  LEU39      -0.2718
      5  CB         9.1970   -2.5640   59.2580 C.3    39  LEU39       0.0284
      6  CG         9.0020   -3.6810   60.2780 C.3    39  LEU39       0.0019
      7  CD1       10.1700   -4.6820   60.2710 C.3    39  LEU39       0.0001
      8  CD2        8.7540   -3.0960   61.6840 C.3    39  LEU39       0.0001
      9  N          7.4460   -0.2520   57.2210 N.am   40  ALA40      -0.1966
     10  CA         7.6120    0.8590   56.2880 C.3    40  ALA40       0.1713
     11  C          7.6310    2.1660   57.0380 C.2    40  ALA40       0.2458
     12  O          6.9870    2.2860   58.0690 O.2    40  ALA40      -0.2730
     13  CB         6.4790    0.8230   55.2160 C.3    40  ALA40       0.0333
     14  N          8.3120    3.1840   56.4860 N.am   41  PRO41      -0.2716
     15  CA         8.1680    4.5020   57.1140 C.3    41  PRO41       0.1536
     16  C          6.7920    5.1000   56.7980 C.2    41  PRO41       0.2599
     17  O          6.1880    4.8140   55.7570 O.2    41  PRO41      -0.2715
     18  CB         9.2400    5.3210   56.4490 C.3    41  PRO41       0.0310
     19  CG         9.2820    4.7280   55.0830 C.3    41  PRO41       0.0237
     20  CD         9.1180    3.2660   55.2640 C.3    41  PRO41       0.0939
     21  N          6.3140    5.9410   57.7290 N.am   42  SER42      -0.1936
     22  CA         5.0940    6.7210   57.4850 C.3    42  SER42       0.2055
     23  C          5.2410    8.0460   58.2340 C.2    42  SER42       0.2643
     24  O          5.8960    8.1190   59.2550 O.2    42  SER42      -0.2714
     25  CB         3.8210    5.9920   57.9490 C.3    42  SER42       0.2130
     26  OG         3.7030    5.8710   59.3660 O.3    42  SER42      -0.2179
     27  N          4.6380    9.0950   57.6680 N.am   43  ALA43      -0.1963
     28  CA         4.7530   10.4520   58.2170 C.3    43  ALA43       0.1728
     29  C          4.2590   10.4320   59.6570 C.2    43  ALA43       0.2616
     30  O          3.1870    9.9440   59.9190 O.2    43  ALA43      -0.2715
     31  CB         3.9120   11.4030   57.4130 C.3    43  ALA43       0.0334
     32  N          5.0940   10.9280   60.5790 N.am   44  PHE44      -0.1960
     33  CA         4.7600   11.0190   62.0030 C.3    44  PHE44       0.1771
     34  C          4.4360    9.6740   62.6370 C.2    44  PHE44       0.2619
     35  O          3.7970    9.6160   63.6960 O.2    44  PHE44      -0.2715
     36  CB         3.5720   12.0030   62.2210 C.3    44  PHE44       0.0574
     37  CG         3.8060   13.3920   61.6620 C.ar   44  PHE44      -0.0200
     38  CD1        4.4460   14.3530   62.4130 C.ar   44  PHE44      -0.0042
     39  CD2        3.3860   13.7130   60.3830 C.ar   44  PHE44      -0.0042
     40  CE1        4.6540   15.6070   61.8840 C.ar   44  PHE44      -0.0003
     41  CE2        3.6050   14.9660   59.8420 C.ar   44  PHE44      -0.0003
     42  CZ         4.2400   15.9080   60.5990 C.ar   44  PHE44      -0.0000
     43  N          4.8480    8.5740   61.9860 N.am   45  ASN45      -0.1972
     44  CA         4.5090    7.2160   62.4110 C.3    45  ASN45       0.1688
     45  C          3.0070    7.0000   62.5490 C.2    45  ASN45       0.2292
     46  O          2.5740    6.2460   63.3960 O.2    45  ASN45      -0.2864
     47  CB         5.2160    6.8920   63.6980 C.3    45  ASN45       0.1181
     48  CG         5.1710    5.4290   64.0560 C.2    45  ASN45       0.2629
     49  OD1        5.2300    4.5600   63.1820 O.2    45  ASN45      -0.2716
     50  ND2        5.0530    5.1370   65.3890 N.am   45  ASN45      -0.0877
     51  N         -1.6080   12.9610   51.8490 N.3   131  GLU131     -0.1245
     52  CA        -0.9040   12.1360   52.8310 C.3   131  GLU131      0.1567
     53  C         -1.3850   10.7060   52.7950 C.2   131  GLU131      0.2260
     54  O         -0.5780    9.7620   52.8840 O.2   131  GLU131     -0.2867
     55  CB        -1.0630   12.7430   54.2400 C.3   131  GLU131      0.0388
     56  CG        -0.0520   13.8400   54.4730 C.3   131  GLU131      0.1160
     57  CD         1.3760   13.2980   54.5960 C.2   131  GLU131      0.3649
     58  OE1        1.7380   12.7420   55.6510 O.co2 131  GLU131     -0.2457
     59  OE2        2.1340   13.4130   53.6230 O.co2 131  GLU131     -0.2457
     60  N          0.2330    9.3380   49.5790 N.3   134  ARG134     -0.1231
     61  CA         1.6970    9.2460   49.6920 C.3   134  ARG134      0.1694
     62  C          2.1130    8.0940   50.5970 C.2   134  ARG134      0.2592
     63  O          2.9310    7.2610   50.2350 O.2   134  ARG134     -0.2718
     64  CB         2.2570   10.5700   50.1430 C.3   134  ARG134      0.0321
     65  CG         3.7220   10.5560   50.5090 C.3   134  ARG134      0.0489
     66  CD         4.3420   12.0170   50.4500 C.3   134  ARG134      0.2205
     67  NE         3.4360   12.9660   51.0770 N.pl3 134  ARG134     -0.0865
     68  CZ         2.9240   14.0360   50.4900 C.cat 134  ARG134      0.5346
     69  NH1        3.3270   14.4320   49.2860 N.pl3 134  ARG134      0.1354
     70  NH2        2.0380   14.7460   51.1420 N.pl3 134  ARG134      0.1354
     71  N          1.5660    8.0560   51.7850 N.am  135  ASN135     -0.1974
     72  CA         1.9810    7.0630   52.7520 C.3   135  ASN135      0.1688
     73  C          1.5280    5.6530   52.3190 C.2   135  ASN135      0.2292
     74  O          2.2830    4.6620   52.4650 O.2   135  ASN135     -0.2864
     75  CB         1.5240    7.4220   54.1310 C.3   135  ASN135      0.1181
     76  CG         2.2920    8.5810   54.6970 C.2   135  ASN135      0.2629
     77  OD1        3.4390    8.4250   55.1080 O.2   135  ASN135     -0.2716
     78  ND2        1.6860    9.7880   54.6340 N.am  135  ASN135     -0.0877
     79  N          4.0230    4.4120   49.5190 N.3   138  LEU138     -0.1245
     80  CA         5.2520    3.9070   50.1360 C.3   138  LEU138      0.1561
     81  C          5.0000    2.4540   50.6270 C.2   138  LEU138      0.2260
     82  O          5.8210    1.5700   50.4170 O.2   138  LEU138     -0.2867
     83  CB         5.6450    4.7640   51.3110 C.3   138  LEU138      0.0270
     84  CG         6.1830    6.1710   50.9980 C.3   138  LEU138      0.0019
     85  CD1        6.2480    6.9420   52.3260 C.3   138  LEU138      0.0001
     86  CD2        7.5720    6.1760   50.3330 C.3   138  LEU138      0.0001
@<TRIPOS>BOND
     1    69    68    1
     2    79    80    1
     3    60    61    1
     4    61    64    1
     5    61    62    1
     6    80    81    1
     7    80    83    1
     8    64    65    1
     9    63    62    2
    10    86    84    1
    11    82    81    2
    12    66    65    1
    13    66    67    1
    14    68    67    2
    15    68    70    1
    16    62    71   am
    17    84    83    1
    18    84    85    1
    19    71    72    1
    20    51    52    1
    21    73    74    2
    22    73    72    1
    23    72    75    1
    24    53    52    1
    25    53    54    2
    26    52    55    1
    27    59    57   ar
    28    75    76    1
    29    55    56    1
    30    56    57    1
    31    57    58   ar
    32    78    76   am
    33    76    77    2
    34    19    20    1
    35    19    18    1
    36    13    10    1
    37    20    14    1
    38    17    16    2
    39    10    11    1
    40    10     9    1
    41    18    15    1
    42    14    11   am
    43    14    15    1
    44    16    15    1
    45    16    21   am
    46    11    12    2
    47     9     3   am
    48    31    28    1
    49    22    21    1
    50    22    25    1
    51    22    23    1
    52    27    28    1
    53    27    23   am
    54    25    26    1
    55     3     4    2
    56     3     2    1
    57    28    29    1
    58    23    24    2
    59     1     2    1
    60     2     5    1
    61     5     6    1
    62    29    30    2
    63    29    32   am
    64    41    39   ar
    65    41    42   ar
    66     7     6    1
    67     6     8    1
    68    39    37   ar
    69    32    33    1
    70    42    40   ar
    71    37    36    1
    72    37    38   ar
    73    40    38   ar
    74    43    44    1
    75    43    34   am
    76    33    36    1
    77    33    34    1
    78    44    45    1
    79    44    47    1
    80    45    46    2
    81    34    35    2
    82    49    48    2
    83    47    48    1
    84    48    50   am
