@<TRIPOS>MOLECULE
tmp/3beoB00.pdb
 244 240 0 0 0
SMALL
GASTEIGER

@<TRIPOS>ATOM
      1  N         14.2470   27.3690   21.2660 N.3    17  THR17      -0.1203
      2  CA        14.1020   25.9760   21.7000 C.3    17  THR17       0.1994
      3  C         13.4880   25.1180   20.6010 C.2    17  THR17       0.2618
      4  O         12.9280   25.6510   19.6290 O.2    17  THR17      -0.2717
      5  CB        13.1980   25.8730   22.9700 C.3    17  THR17       0.1784
      6  OG1       11.8410   26.2320   22.6560 O.3    17  THR17      -0.2211
      7  CG2       13.7600   26.7390   24.0970 C.3    17  THR17       0.0376
      8  N         13.6760   23.7950   20.6930 N.am   18  ARG18      -0.1965
      9  CA        13.0320   22.8720   19.7290 C.3    18  ARG18       0.1714
     10  C         11.5500   23.1390   19.5000 C.2    18  ARG18       0.2458
     11  O         11.1300   23.2890   18.3780 O.2    18  ARG18      -0.2730
     12  CB        13.2000   21.4240   20.1780 C.3    18  ARG18       0.0347
     13  CG        12.3500   20.4520   19.4420 C.3    18  ARG18       0.0492
     14  CD        12.7050   18.9890   19.7390 C.3    18  ARG18       0.2205
     15  NE        12.3340   18.5820   21.0850 N.pl3  18  ARG18      -0.0865
     16  CZ        12.6830   17.4130   21.6610 C.cat  18  ARG18       0.5346
     17  NH1       13.4900   16.5400   21.0360 N.pl3  18  ARG18       0.1354
     18  NH2       12.2690   17.1300   22.9100 N.pl3  18  ARG18       0.1354
     19  N         10.7280   23.1430   20.5600 N.am   19  PRO19      -0.2727
     20  CA         9.2800   23.2830   20.2990 C.3    19  PRO19       0.1402
     21  C          8.8950   24.6300   19.6700 C.2    19  PRO19       0.2269
     22  O          7.9940   24.6640   18.8620 O.2    19  PRO19      -0.2865
     23  CB         8.6320   23.1970   21.7020 C.3    19  PRO19       0.0296
     24  CG         9.7390   23.5510   22.6290 C.3    19  PRO19       0.0237
     25  CD        11.0050   23.0200   22.0070 C.3    19  PRO19       0.0939
     26  N         18.7730   29.2880   23.5030 N.3    47  GLN47      -0.1231
     27  CA        18.4830   28.6000   24.7680 C.3    47  GLN47       0.1698
     28  C         18.7510   27.0710   24.6880 C.2    47  GLN47       0.2592
     29  O         19.3050   26.4350   25.6420 O.2    47  GLN47      -0.2718
     30  CB        17.0350   28.8280   25.1220 C.3    47  GLN47       0.0381
     31  CG        16.6760   28.3170   26.4710 C.3    47  GLN47       0.0905
     32  CD        15.2100   28.5550   26.8600 C.2    47  GLN47       0.2608
     33  OE1       14.5790   29.5840   26.5400 O.2    47  GLN47      -0.2717
     34  NE2       14.6800   27.6090   27.5980 N.am   47  GLN47      -0.0878
     35  N         18.3320   26.5230   23.5580 N.am   48  HIS48      -0.1962
     36  CA        18.7530   25.1840   23.1070 C.3    48  HIS48       0.1787
     37  C         19.7930   25.3870   21.9990 C.2    48  HIS48       0.2620
     38  O         19.6640   26.3090   21.1910 O.2    48  HIS48      -0.2715
     39  CB        17.5830   24.4230   22.5240 C.3    48  HIS48       0.0785
     40  CG        16.6230   23.9070   23.5490 C.ar   48  HIS48       0.0821
     41  ND1       15.5630   23.1020   23.2060 N.ar   48  HIS48      -0.2267
     42  CD2       16.6060   24.0070   24.8970 C.ar   48  HIS48       0.1154
     43  CE1       14.8880   22.7880   24.2980 C.ar   48  HIS48       0.1986
     44  NE2       15.5210   23.2920   25.3400 N.ar   48  HIS48      -0.2212
     45  N         20.8110   24.5240   21.9620 N.am   49  ARG49      -0.1963
     46  CA        21.7750   24.5130   20.8650 C.3    49  ARG49       0.1729
     47  C         21.4900   23.3420   19.9150 C.2    49  ARG49       0.2616
     48  O         20.8950   23.5410   18.8620 O.2    49  ARG49      -0.2715
     49  CB        23.1930   24.4670   21.4310 C.3    49  ARG49       0.0348
     50  CG        24.3340   24.4730   20.3600 C.3    49  ARG49       0.0492
     51  CD        24.5230   25.8270   19.7220 C.3    49  ARG49       0.2205
     52  NE        23.5270   26.1630   18.7090 N.pl3  49  ARG49      -0.0865
     53  CZ        23.2220   27.4060   18.3190 C.cat  49  ARG49       0.5346
     54  NH1       23.8270   28.4550   18.8470 N.pl3  49  ARG49       0.1354
     55  NH2       22.3450   27.5900   17.3700 N.pl3  49  ARG49       0.1354
     56  N         21.8380   22.1110   20.3100 N.am   50  GLN50      -0.1963
     57  CA        21.6890   20.9330   19.4290 C.3    50  GLN50       0.1733
     58  C         20.2390   20.6680   19.0130 C.2    50  GLN50       0.2616
     59  O         19.9690   20.4660   17.8310 O.2    50  GLN50      -0.2715
     60  CB        22.3380   19.6830   20.0360 C.3    50  GLN50       0.0408
     61  CG        23.8300   19.8550   20.3730 C.3    50  GLN50       0.0908
     62  CD        24.0720   20.4240   21.7750 C.2    50  GLN50       0.2608
     63  OE1       23.1610   20.8790   22.4580 O.2    50  GLN50      -0.2717
     64  NE2       25.3080   20.3560   22.2200 N.am   50  GLN50      -0.0878
     65  N         19.2990   20.6870   19.9700 N.am   51  MET51      -0.1977
     66  CA        17.8850   20.4290   19.6600 C.3    51  MET51       0.1605
     67  C         17.2520   21.5810   18.8410 C.2    51  MET51       0.2287
     68  O         16.3930   21.3520   18.0020 O.2    51  MET51      -0.2864
     69  CB        17.1040   20.0850   20.9380 C.3    51  MET51       0.0413
     70  CG        17.5660   18.7600   21.5160 C.3    51  MET51       0.0598
     71  SD        16.4180   18.1120   22.7080 S.3    51  MET51      -0.1393
     72  CE        16.5380   19.2760   23.9020 C.3    51  MET51       0.0692
     73  N         23.1180   29.0550   25.3020 N.3    70  MET70      -0.1230
     74  CA        23.0220   27.8450   26.1420 C.3    70  MET70       0.1702
     75  C         24.2920   27.5720   26.9760 C.2    70  MET70       0.2592
     76  O         25.3990   27.6370   26.4210 O.2    70  MET70      -0.2718
     77  CB        22.7360   26.6050   25.2910 C.3    70  MET70       0.0401
     78  CG        22.2690   25.4190   26.1470 C.3    70  MET70       0.0596
     79  SD        21.9600   23.8520   25.3240 S.3    70  MET70      -0.1393
     80  CE        23.6620   23.2290   25.1680 C.3    70  MET70       0.0692
     81  N         24.1110   27.3090   28.2820 N.am   71  LYS71      -0.1966
     82  CA        25.1370   26.8000   29.1870 C.3    71  LYS71       0.1728
     83  C         24.7290   25.3840   29.6550 C.2    71  LYS71       0.2616
     84  O         23.5540   25.0240   29.6390 O.2    71  LYS71      -0.2715
     85  CB        25.2450   27.7100   30.4150 C.3    71  LYS71       0.0311
     86  CG        25.7470   29.1190   30.1820 C.3    71  LYS71       0.0038
     87  CD        25.6210   29.9500   31.4660 C.3    71  LYS71       0.0206
     88  CE        26.5260   29.4930   32.6170 C.3    71  LYS71       0.1093
     89  NZ        26.2850   30.3630   33.8560 N.3    71  LYS71      -0.1314
     90  N         25.7140   24.5660   30.0160 N.am   72  ASP72      -0.1957
     91  CA        25.4070   23.2120   30.5970 C.3    72  ASP72       0.1840
     92  C         24.6350   23.3770   31.9190 C.2    72  ASP72       0.2622
     93  O         25.0600   24.1470   32.8230 O.2    72  ASP72      -0.2715
     94  CB        26.7040   22.4610   30.8210 C.3    72  ASP72       0.1450
     95  CG        26.5200   21.1650   31.6210 C.2    72  ASP72       0.3671
     96  OD1       25.8130   20.2590   31.1620 O.co2  72  ASP72      -0.2456
     97  OD2       27.1350   21.0520   32.7130 O.co2  72  ASP72      -0.2456
     98  N         23.4880   22.7070   32.0280 N.am   73  ARG73      -0.1963
     99  CA        22.6940   22.7280   33.2670 C.3    73  ARG73       0.1729
    100  C         22.4040   24.1600   33.7250 C.2    73  ARG73       0.2616
    101  O         22.5960   24.5370   34.8920 O.2    73  ARG73      -0.2715
    102  CB        23.3880   21.9690   34.3920 C.3    73  ARG73       0.0348
    103  CG        23.6690   20.4540   34.1540 C.3    73  ARG73       0.0492
    104  CD        24.4870   19.8990   35.2950 C.3    73  ARG73       0.2205
    105  NE        24.8290   18.4900   35.1070 N.pl3  73  ARG73      -0.0865
    106  CZ        24.2270   17.4640   35.6890 C.cat  73  ARG73       0.5346
    107  NH1       23.2480   17.6490   36.5610 N.pl3  73  ARG73       0.1354
    108  NH2       24.6630   16.2170   35.4320 N.pl3  73  ARG73       0.1354
    109  N         21.8980   24.9410   32.7910 N.am   74  GLN74      -0.1977
    110  CA        21.6880   26.3450   32.9950 C.3    74  GLN74       0.1601
    111  C         20.4790   26.5600   33.8910 C.2    74  GLN74       0.2287
    112  O         19.5430   25.7310   33.9460 O.2    74  GLN74      -0.2864
    113  CB        21.5160   27.0580   31.6310 C.3    74  GLN74       0.0394
    114  CG        20.2380   26.7830   30.8910 C.3    74  GLN74       0.0908
    115  CD        20.3110   27.1190   29.4050 C.2    74  GLN74       0.2608
    116  OE1       21.2900   27.7050   28.9400 O.2    74  GLN74      -0.2717
    117  NE2       19.2490   26.7650   28.6460 N.am   74  GLN74      -0.0878
    118  N         17.2770   29.3290   35.2620 N.3    76  LEU76      -0.1245
    119  CA        16.3510   30.2870   34.6780 C.3    76  LEU76       0.1561
    120  C         16.9550   31.6890   34.6620 C.2    76  LEU76       0.2260
    121  O         16.6450   32.5030   33.7710 O.2    76  LEU76      -0.2867
    122  CB        15.0370   30.2700   35.4390 C.3    76  LEU76       0.0270
    123  CG        14.2320   28.9640   35.3220 C.3    76  LEU76       0.0019
    124  CD1       12.9700   29.0270   36.1750 C.3    76  LEU76       0.0001
    125  CD2       13.8600   28.6880   33.8770 C.3    76  LEU76       0.0001
    126  N         19.3340   32.0490   31.6350 N.3    79  ILE79      -0.1245
    127  CA        18.6100   32.2870   30.3870 C.3    79  ILE79       0.1561
    128  C         18.1030   33.7240   30.3510 C.2    79  ILE79       0.2260
    129  O         18.3030   34.4760   29.4080 O.2    79  ILE79      -0.2867
    130  CB        17.4300   31.3890   30.2150 C.3    79  ILE79       0.0252
    131  CG1       17.8880   29.9080   30.2380 C.3    79  ILE79       0.0019
    132  CG2       16.7450   31.8210   28.9500 C.3    79  ILE79       0.0019
    133  CD1       16.7270   28.9270   30.5110 C.3    79  ILE79       0.0001
    134  N          5.5430   29.8300   25.5310 N.3   104  ASP104     -0.1225
    135  CA         5.7220   29.9490   26.9740 C.3   104  ASP104      0.1805
    136  C          7.1000   29.5810   27.5520 C.2   104  ASP104      0.2598
    137  O          7.2070   29.2240   28.7290 O.2   104  ASP104     -0.2718
    138  CB         4.5730   29.1890   27.6290 C.3   104  ASP104      0.1424
    139  CG         4.5080   27.7420   27.2020 C.2   104  ASP104      0.3668
    140  OD1        5.6080   27.1930   26.9350 O.co2 104  ASP104     -0.2456
    141  OD2        3.3640   27.1720   27.1930 O.co2 104  ASP104     -0.2456
    142  N          8.1480   29.6220   26.7170 N.am  105  THR105     -0.1939
    143  CA         9.5230   29.4260   27.2040 C.3   105  THR105      0.2028
    144  C         10.0530   30.6830   27.8870 C.2   105  THR105      0.2642
    145  O          9.4600   31.7800   27.7570 O.2   105  THR105     -0.2714
    146  CB        10.5250   29.0880   26.0410 C.3   105  THR105      0.1808
    147  OG1       10.7800   30.2510   25.2880 O.3   105  THR105     -0.2208
    148  CG2       10.0270   27.9320   25.1580 C.3   105  THR105      0.0379
    149  N         11.1860   30.5470   28.5970 N.am  106  THR106     -0.1950
    150  CA        11.8550   31.7220   29.1480 C.3   106  THR106      0.1897
    151  C         12.3100   32.6990   28.0530 C.2   106  THR106      0.2313
    152  O         12.1680   33.9160   28.2100 O.2   106  THR106     -0.2863
    153  CB        12.9510   31.3450   30.1730 C.3   106  THR106      0.1794
    154  OG1       12.3700   30.5850   31.2410 O.3   106  THR106     -0.2208
    155  CG2       13.6300   32.6070   30.6980 C.3   106  THR106      0.0378
    156  N          8.4390   26.9410   34.6450 N.3   139  PRO139     -0.2102
    157  CA         7.8440   28.3140   34.7860 C.3   139  PRO139      0.1504
    158  C          6.8980   28.7520   33.6780 C.2   139  PRO139      0.2575
    159  O          6.5970   29.9670   33.5600 O.2   139  PRO139     -0.2718
    160  CB         9.0800   29.2130   34.7630 C.3   139  PRO139      0.0282
    161  CG         9.9560   28.4730   33.7240 C.3   139  PRO139      0.0208
    162  CD         9.7120   26.9840   33.9100 C.3   139  PRO139      0.0893
    163  N          6.4160   27.7980   32.8690 N.am  140  GLU140     -0.1980
    164  CA         5.7060   28.0950   31.5910 C.3   140  GLU140      0.1602
    165  C          4.3870   28.8170   31.7930 C.2   140  GLU140      0.2287
    166  O          4.0420   29.7130   31.0430 O.2   140  GLU140     -0.2864
    167  CB         5.5210   26.8360   30.7500 C.3   140  GLU140      0.0415
    168  CG         6.8210   26.2370   30.2200 C.3   140  GLU140      0.1163
    169  CD         7.5350   25.2480   31.1360 C.2   140  GLU140      0.3649
    170  OE1        7.2120   25.1490   32.3530 O.co2 140  GLU140     -0.2457
    171  OE2        8.5260   24.6630   30.6470 O.co2 140  GLU140     -0.2457
    172  N          5.3740   32.2440   32.3420 N.3   143  ASN143     -0.1240
    173  CA         5.9360   32.8810   31.1580 C.3   143  ASN143      0.1653
    174  C          4.8230   33.3930   30.2260 C.2   143  ASN143      0.2266
    175  O          4.8980   34.4710   29.6460 O.2   143  ASN143     -0.2867
    176  CB         6.8820   31.9250   30.4060 C.3   143  ASN143      0.1155
    177  CG         8.1840   31.7110   31.1130 C.2   143  ASN143      0.2627
    178  OD1        8.6240   32.5660   31.9230 O.2   143  ASN143     -0.2716
    179  ND2        8.8210   30.5360   30.8600 N.am  143  ASN143     -0.0877
    180  N         10.1160   15.4690   30.0440 N.3   213  HIS213     -0.1226
    181  CA        11.0750   16.5390   30.3780 C.3   213  HIS213      0.1752
    182  C         10.5350   17.7190   31.2050 C.2   213  HIS213      0.2596
    183  O         11.3080   18.6720   31.4520 O.2   213  HIS213     -0.2718
    184  CB        11.7100   17.0860   29.0820 C.3   213  HIS213      0.0759
    185  CG        10.7580   17.8640   28.2250 C.ar  213  HIS213      0.0818
    186  ND1       10.6530   19.2510   28.2550 N.ar  213  HIS213     -0.2268
    187  CD2        9.8740   17.4440   27.3030 C.ar  213  HIS213      0.1154
    188  CE1        9.7360   19.6320   27.3830 C.ar  213  HIS213      0.1986
    189  NE2        9.2410   18.5550   26.7950 N.ar  213  HIS213     -0.2212
    190  N          9.2760   17.6910   31.6740 N.am  214  ARG214     -0.1966
    191  CA         8.7300   18.8770   32.3670 C.3   214  ARG214      0.1729
    192  C          9.5530   19.1700   33.6320 C.2   214  ARG214      0.2616
    193  O          9.9070   18.2550   34.3760 O.2   214  ARG214     -0.2715
    194  CB         7.2680   18.7020   32.7860 C.3   214  ARG214      0.0348
    195  CG         6.2630   18.6920   31.6910 C.3   214  ARG214      0.0492
    196  CD         5.6210   20.0410   31.4030 C.3   214  ARG214      0.2205
    197  NE         6.5840   21.0330   30.8820 N.pl3 214  ARG214     -0.0865
    198  CZ         6.9740   21.1190   29.6060 C.cat 214  ARG214      0.5346
    199  NH1        6.4790   20.3270   28.6940 N.pl3 214  ARG214      0.1354
    200  NH2        7.8270   22.0640   29.2410 N.pl3 214  ARG214      0.1354
    201  N          9.8520   20.4540   33.8470 N.am  215  ARG215     -0.1977
    202  CA        10.7440   20.8890   34.9160 C.3   215  ARG215      0.1597
    203  C         10.2450   20.3990   36.2750 C.2   215  ARG215      0.2287
    204  O         11.0310   19.8980   37.0900 O.2   215  ARG215     -0.2864
    205  CB        10.8460   22.4160   34.9060 C.3   215  ARG215      0.0334
    206  CG        11.9190   22.9620   35.8050 C.3   215  ARG215      0.0492
    207  CD        12.1570   24.4450   35.5360 C.3   215  ARG215      0.2205
    208  NE        12.5170   24.6510   34.1120 N.pl3 215  ARG215     -0.0865
    209  CZ        13.6990   25.0620   33.6720 C.cat 215  ARG215      0.5346
    210  NH1       14.6290   25.4380   34.5240 N.pl3 215  ARG215      0.1354
    211  NH2       13.9150   25.1690   32.3480 N.pl3 215  ARG215      0.1354
    212  N         15.3090   13.6270   26.0610 N.3   246  HIS246     -0.1226
    213  CA        15.6670   15.0740   26.0580 C.3   246  HIS246      0.1752
    214  C         17.1250   15.2570   26.5170 C.2   246  HIS246      0.2596
    215  O         17.6240   14.4470   27.3090 O.2   246  HIS246     -0.2718
    216  CB        14.6980   15.7730   26.9980 C.3   246  HIS246      0.0759
    217  CG        14.7880   17.2660   27.0010 C.ar  246  HIS246      0.0818
    218  ND1       15.8580   17.9450   27.5360 N.ar  246  HIS246     -0.2268
    219  CD2       13.8990   18.2070   26.6040 C.ar  246  HIS246      0.1154
    220  CE1       15.6520   19.2440   27.4230 C.ar  246  HIS246      0.1986
    221  NE2       14.4700   19.4310   26.8600 N.ar  246  HIS246     -0.2212
    222  N         17.8100   16.3030   26.0290 N.am  247  MET247     -0.1965
    223  CA        19.2520   16.5030   26.2970 C.3   247  MET247      0.1736
    224  C         19.5970   17.0020   27.7380 C.2   247  MET247      0.2616
    225  O         20.7750   17.0500   28.1360 O.2   247  MET247     -0.2715
    226  CB        19.8360   17.4290   25.2350 C.3   247  MET247      0.0427
    227  CG        19.8040   16.8260   23.8470 C.3   247  MET247      0.0599
    228  SD        20.9960   17.5650   22.7460 S.3   247  MET247     -0.1393
    229  CE        22.5320   17.5360   23.7070 C.3   247  MET247      0.0692
    230  N         18.5940   17.3860   28.5160 N.am  248  ASN248     -0.1959
    231  CA        18.8030   17.8040   29.8850 C.3   248  ASN248      0.1804
    232  C         19.5290   16.6770   30.6520 C.2   248  ASN248      0.2463
    233  O         18.9870   15.5970   30.7530 O.2   248  ASN248     -0.2730
    234  CB        17.4640   18.1500   30.5600 C.3   248  ASN248      0.1195
    235  CG        17.6350   18.6770   31.9680 C.2   248  ASN248      0.2630
    236  OD1       18.7360   18.6980   32.5090 O.2   248  ASN248     -0.2716
    237  ND2       16.5320   19.0480   32.5860 N.am  248  ASN248     -0.0877
    238  N         20.7610   16.9180   31.1300 N.am  249  PRO249     -0.2727
    239  CA        21.5340   15.8820   31.8840 C.3   249  PRO249      0.1402
    240  C         20.7410   15.2890   33.0550 C.2   249  PRO249      0.2269
    241  O         20.8590   14.1040   33.3560 O.2   249  PRO249     -0.2865
    242  CB        22.7420   16.6530   32.3970 C.3   249  PRO249      0.0296
    243  CG        22.9000   17.8380   31.4720 C.3   249  PRO249      0.0237
    244  CD        21.5270   18.1900   31.0090 C.3   249  PRO249      0.0939
@<TRIPOS>BOND
     1    55    53    1
     2    59    58    2
     3    68    67    2
     4    53    52    2
     5    53    54    1
     6    11    10    2
     7    52    51    1
     8    67    66    1
     9    22    21    2
    10    48    47    2
    11    58    57    1
    12    58    65   am
    13    57    60    1
    14    57    56    1
    15    13    14    1
    16    13    12    1
    17    10     9    1
    18    10    19   am
    19     4     3    2
    20    66    65    1
    21    66    69    1
    22    21    20    1
    23    51    50    1
    24     9    12    1
    25     9     8    1
    26    14    15    1
    27    47    56   am
    28    47    46    1
    29    60    61    1
    30    20    19    1
    31    20    23    1
    32    50    49    1
    33    61    62    1
    34    19    25    1
    35     3     8   am
    36     3     2    1
    37    46    49    1
    38    46    45    1
    39    69    70    1
    40    17    16    1
    41    15    16    2
    42    38    37    2
    43     1     2    1
    44    70    71    1
    45    16    18    1
    46     2     5    1
    47    23    24    1
    48    62    64   am
    49    62    63    2
    50    45    37   am
    51    37    36    1
    52    25    24    1
    53    39    36    1
    54    39    40    1
    55     6     5    1
    56    71    72    1
    57   228   229    1
    58   228   227    1
    59     5     7    1
    60    36    35    1
    61    41    40   ar
    62    41    43   ar
    63    26    27    1
    64    40    42   ar
    65    35    28   am
    66   227   226    1
    67    43    44   ar
    68    28    27    1
    69    28    29    2
    70    27    30    1
    71    42    44   ar
    72    30    31    1
    73   148   146    1
    74    80    79    1
    75   226   223    1
    76   147   146    1
    77    77    74    1
    78    77    78    1
    79    73    74    1
    80    79    78    1
    81   134   135    1
    82   222   223    1
    83   222   214   am
    84   146   143    1
    85   213   212    1
    86   213   214    1
    87   213   216    1
    88    74    75    1
    89   223   224    1
    90    76    75    2
    91    31    32    1
    92   214   215    2
    93    33    32    2
    94   219   221   ar
    95   219   217   ar
    96   142   143    1
    97   142   136   am
    98   189   187   ar
    99   189   188   ar
   100   221   220   ar
   101    32    34   am
   102   140   139   ar
   103   135   136    1
   104   135   138    1
   105    75    81   am
   106   216   217    1
   107   217   218   ar
   108   141   139   ar
   109   139   138    1
   110   143   144    1
   111   187   185   ar
   112   188   186   ar
   113   220   218   ar
   114   136   137    2
   115   224   225    2
   116   224   230   am
   117   145   144    2
   118   144   149   am
   119   151   152    2
   120   151   150    1
   121   185   186   ar
   122   185   184    1
   123    81    82    1
   124   230   231    1
   125   149   150    1
   126   117   115   am
   127   199   198    1
   128   116   115    2
   129   132   130    1
   130   184   181    1
   131   150   153    1
   132    82    83    1
   133    82    85    1
   134   200   198    1
   135   115   114    1
   136   129   128    2
   137   198   197    2
   138    84    83    2
   139   175   174    2
   140    83    90   am
   141   231   234    1
   142   231   232    1
   143    90    91    1
   144   180   181    1
   145   153   155    1
   146   153   154    1
   147    86    85    1
   148    86    87    1
   149   130   131    1
   150   130   127    1
   151   168   167    1
   152   168   169    1
   153   174   173    1
   154   131   133    1
   155   128   127    1
   156   181   182    1
   157   127   126    1
   158   176   177    1
   159   176   173    1
   160   234   235    1
   161    91    94    1
   162    91    92    1
   163   171   169   ar
   164   232   233    2
   165   232   238   am
   166   167   164    1
   167    94    95    1
   168   179   177   am
   169   197   196    1
   170   114   113    1
   171   244   238    1
   172   244   243    1
   173   166   165    2
   174   177   178    2
   175   238   239    1
   176   169   170   ar
   177   173   172    1
   178    96    95   ar
   179   182   183    2
   180   182   190   am
   181   196   195    1
   182    87    88    1
   183   243   242    1
   184   164   165    1
   185   164   163    1
   186    95    97   ar
   187   113   110    1
   188   190   191    1
   189   195   194    1
   190   239   242    1
   191   239   240    1
   192    92    98   am
   193    92    93    2
   194   235   236    2
   195   235   237   am
   196    98    99    1
   197   211   209    1
   198   191   194    1
   199   191   192    1
   200    88    89    1
   201   109   110    1
   202   109   100   am
   203   163   158   am
   204   110   111    1
   205   240   241    2
   206    99   100    1
   207    99   102    1
   208   159   158    2
   209   192   201   am
   210   192   193    2
   211   209   208    2
   212   209   210    1
   213   158   157    1
   214   161   162    1
   215   161   160    1
   216   100   101    2
   217   121   120    2
   218   201   202    1
   219   125   123    1
   220   111   112    2
   221   162   156    1
   222   208   207    1
   223   103   102    1
   224   103   104    1
   225   156   157    1
   226   120   119    1
   227   119   118    1
   228   119   122    1
   229   160   157    1
   230   205   202    1
   231   205   206    1
   232   202   203    1
   233   105   104    1
   234   105   106    2
   235   123   122    1
   236   123   124    1
   237   108   106    1
   238   207   206    1
   239   106   107    1
   240   203   204    2
