@<TRIPOS>MOLECULE
tmp/3beoB01.pdb
 185 179 0 0 0
SMALL
GASTEIGER

@<TRIPOS>ATOM
      1  N         13.6760   23.7950   20.6930 N.3    18  ARG18      -0.1231
      2  CA        13.0320   22.8720   19.7290 C.3    18  ARG18       0.1679
      3  C         11.5500   23.1390   19.5000 C.2    18  ARG18       0.2434
      4  O         11.1300   23.2890   18.3780 O.2    18  ARG18      -0.2733
      5  CB        13.2000   21.4240   20.1780 C.3    18  ARG18       0.0321
      6  CG        12.3500   20.4520   19.4420 C.3    18  ARG18       0.0489
      7  CD        12.7050   18.9890   19.7390 C.3    18  ARG18       0.2205
      8  NE        12.3340   18.5820   21.0850 N.pl3  18  ARG18      -0.0865
      9  CZ        12.6830   17.4130   21.6610 C.cat  18  ARG18       0.5346
     10  NH1       13.4900   16.5400   21.0360 N.pl3  18  ARG18       0.1354
     11  NH2       12.2690   17.1300   22.9100 N.pl3  18  ARG18       0.1354
     12  N         10.7280   23.1430   20.5600 N.am   19  PRO19      -0.2729
     13  CA         9.2800   23.2830   20.2990 C.3    19  PRO19       0.1401
     14  C          8.8950   24.6300   19.6700 C.2    19  PRO19       0.2269
     15  O          7.9940   24.6640   18.8620 O.2    19  PRO19      -0.2865
     16  CB         8.6320   23.1970   21.7020 C.3    19  PRO19       0.0296
     17  CG         9.7390   23.5510   22.6290 C.3    19  PRO19       0.0237
     18  CD        11.0050   23.0200   22.0070 C.3    19  PRO19       0.0939
     19  N          9.8190   24.4760   15.9180 N.3    22  ILE22      -0.1231
     20  CA         8.8950   23.7100   15.0970 C.3    22  ILE22       0.1692
     21  C          7.6240   24.5130   14.8210 C.2    22  ILE22       0.2591
     22  O          7.0900   24.4900   13.7160 O.2    22  ILE22      -0.2718
     23  CB         8.5580   22.3360   15.7570 C.3    22  ILE22       0.0266
     24  CG1        9.8200   21.4610   15.7660 C.3    22  ILE22       0.0019
     25  CG2        7.2960   21.7060   15.0720 C.3    22  ILE22       0.0020
     26  CD1        9.7550   20.2430   16.5770 C.3    22  ILE22       0.0001
     27  N          7.1030   25.1940   15.8580 N.am   23  LYS23      -0.1980
     28  CA         5.8820   25.9160   15.7380 C.3    23  LYS23       0.1596
     29  C          6.0380   27.2550   14.9870 C.2    23  LYS23       0.2287
     30  O          5.0910   27.7200   14.3570 O.2    23  LYS23      -0.2864
     31  CB         5.2290   26.0680   17.1330 C.3    23  LYS23       0.0298
     32  CG         4.6040   24.7590   17.6570 C.3    23  LYS23       0.0038
     33  CD         4.0410   24.9430   19.0830 C.3    23  LYS23       0.0206
     34  CE         3.0580   23.8430   19.4730 C.3    23  LYS23       0.1093
     35  NZ         2.7680   23.8570   20.9950 N.3    23  LYS23      -0.1314
     36  N         18.3320   26.5230   23.5580 N.3    48  HIS48      -0.1241
     37  CA        18.7530   25.1840   23.1070 C.3    48  HIS48       0.1621
     38  C         19.7930   25.3870   21.9990 C.2    48  HIS48       0.2264
     39  O         19.6640   26.3090   21.1910 O.2    48  HIS48      -0.2867
     40  CB        17.5830   24.4230   22.5240 C.3    48  HIS48       0.0745
     41  CG        16.6230   23.9070   23.5490 C.ar   48  HIS48       0.0817
     42  ND1       15.5630   23.1020   23.2060 N.ar   48  HIS48      -0.2268
     43  CD2       16.6060   24.0070   24.8970 C.ar   48  HIS48       0.1154
     44  CE1       14.8880   22.7880   24.2980 C.ar   48  HIS48       0.1986
     45  NE2       15.5210   23.2920   25.3400 N.ar   48  HIS48      -0.2212
     46  N         16.1030   21.3870   14.2960 N.3    55  VAL55      -0.1245
     47  CA        14.8490   21.9040   13.6940 C.3    55  VAL55       0.1561
     48  C         15.1400   22.8350   12.5530 C.2    55  VAL55       0.2260
     49  O         14.4990   22.7670   11.5010 O.2    55  VAL55      -0.2867
     50  CB        13.9270   22.6460   14.7270 C.3    55  VAL55       0.0252
     51  CG1       12.5870   23.0900   14.0430 C.3    55  VAL55       0.0019
     52  CG2       13.6050   21.6950   15.9290 C.3    55  VAL55       0.0019
     53  N          5.5430   29.8300   25.5310 N.3   104  ASP104     -0.1225
     54  CA         5.7220   29.9490   26.9740 C.3   104  ASP104      0.1805
     55  C          7.1000   29.5810   27.5520 C.2   104  ASP104      0.2598
     56  O          7.2070   29.2240   28.7290 O.2   104  ASP104     -0.2718
     57  CB         4.5730   29.1890   27.6290 C.3   104  ASP104      0.1424
     58  CG         4.5080   27.7420   27.2020 C.2   104  ASP104      0.3668
     59  OD1        5.6080   27.1930   26.9350 O.co2 104  ASP104     -0.2456
     60  OD2        3.3640   27.1720   27.1930 O.co2 104  ASP104     -0.2456
     61  N          8.1480   29.6220   26.7170 N.am  105  THR105     -0.1953
     62  CA         9.5230   29.4260   27.2040 C.3   105  THR105      0.1897
     63  C         10.0530   30.6830   27.8870 C.2   105  THR105      0.2313
     64  O          9.4600   31.7800   27.7570 O.2   105  THR105     -0.2863
     65  CB        10.5250   29.0880   26.0410 C.3   105  THR105      0.1794
     66  OG1       10.7800   30.2510   25.2880 O.3   105  THR105     -0.2208
     67  CG2       10.0270   27.9320   25.1580 C.3   105  THR105      0.0378
     68  N          7.9880   10.4780   25.7640 N.3   211  THR211     -0.1218
     69  CA         8.9150   11.5790   26.0560 C.3   211  THR211      0.1862
     70  C          8.5840   12.1580   27.4260 C.2   211  THR211      0.2287
     71  O          7.4110   12.1870   27.8110 O.2   211  THR211     -0.2866
     72  CB         8.9030   12.7170   24.9930 C.3   211  THR211      0.1770
     73  OG1        7.7130   13.5190   25.1010 O.3   211  THR211     -0.2211
     74  CG2        9.0700   12.1670   23.5590 C.3   211  THR211      0.0375
     75  N         10.1160   15.4690   30.0440 N.3   213  HIS213     -0.1226
     76  CA        11.0750   16.5390   30.3780 C.3   213  HIS213      0.1752
     77  C         10.5350   17.7190   31.2050 C.2   213  HIS213      0.2595
     78  O         11.3080   18.6720   31.4520 O.2   213  HIS213     -0.2718
     79  CB        11.7100   17.0860   29.0820 C.3   213  HIS213      0.0759
     80  CG        10.7580   17.8640   28.2250 C.ar  213  HIS213      0.0818
     81  ND1       10.6530   19.2510   28.2550 N.ar  213  HIS213     -0.2268
     82  CD2        9.8740   17.4440   27.3030 C.ar  213  HIS213      0.1154
     83  CE1        9.7360   19.6320   27.3830 C.ar  213  HIS213      0.1986
     84  NE2        9.2410   18.5550   26.7950 N.ar  213  HIS213     -0.2212
     85  N          9.2760   17.6910   31.6740 N.am  214  ARG214     -0.1980
     86  CA         8.7300   18.8770   32.3670 C.3   214  ARG214      0.1597
     87  C          9.5530   19.1700   33.6320 C.2   214  ARG214      0.2287
     88  O          9.9070   18.2550   34.3760 O.2   214  ARG214     -0.2864
     89  CB         7.2680   18.7020   32.7860 C.3   214  ARG214      0.0334
     90  CG         6.2630   18.6920   31.6910 C.3   214  ARG214      0.0492
     91  CD         5.6210   20.0410   31.4030 C.3   214  ARG214      0.2205
     92  NE         6.5840   21.0330   30.8820 N.pl3 214  ARG214     -0.0865
     93  CZ         6.9740   21.1190   29.6060 C.cat 214  ARG214      0.5346
     94  NH1        6.4790   20.3270   28.6940 N.pl3 214  ARG214      0.1354
     95  NH2        7.8270   22.0640   29.2410 N.pl3 214  ARG214      0.1354
     96  N         12.9480    8.9060   22.8830 N.3   244  PRO244     -0.2116
     97  CA        13.9560    9.8900   22.4440 C.3   244  PRO244      0.1372
     98  C         14.2020   10.8420   23.6290 C.2   244  PRO244      0.2244
     99  O         13.3590   11.6820   23.9530 O.2   244  PRO244     -0.2868
    100  CB        13.3090   10.5580   21.2110 C.3   244  PRO244      0.0268
    101  CG        12.0700    9.6750   20.8760 C.3   244  PRO244      0.0207
    102  CD        11.6550    9.1490   22.2330 C.3   244  PRO244      0.0892
    103  N         15.3090   13.6270   26.0610 N.3   246  HIS246     -0.1241
    104  CA        15.6670   15.0740   26.0580 C.3   246  HIS246      0.1621
    105  C         17.1250   15.2570   26.5170 C.2   246  HIS246      0.2264
    106  O         17.6240   14.4470   27.3090 O.2   246  HIS246     -0.2867
    107  CB        14.6980   15.7730   26.9980 C.3   246  HIS246      0.0745
    108  CG        14.7880   17.2660   27.0010 C.ar  246  HIS246      0.0817
    109  ND1       15.8580   17.9450   27.5360 N.ar  246  HIS246     -0.2268
    110  CD2       13.8990   18.2070   26.6040 C.ar  246  HIS246      0.1154
    111  CE1       15.6520   19.2440   27.4230 C.ar  246  HIS246      0.1986
    112  NE2       14.4700   19.4310   26.8600 N.ar  246  HIS246     -0.2212
    113  N         17.3420   12.4490   20.6790 N.3   270  PRO270     -0.2102
    114  CA        16.2390   13.1520   20.0730 C.3   270  PRO270      0.1504
    115  C         16.1300   12.9220   18.5710 C.2   270  PRO270      0.2575
    116  O         17.1460   12.9740   17.8580 O.2   270  PRO270     -0.2718
    117  CB        16.5840   14.6430   20.3630 C.3   270  PRO270      0.0282
    118  CG        17.2810   14.5800   21.6880 C.3   270  PRO270      0.0208
    119  CD        18.0540   13.2750   21.6660 C.3   270  PRO270      0.0893
    120  N         14.9090   12.6580   18.1220 N.am  271  LEU271     -0.1980
    121  CA        14.6250   12.4230   16.7000 C.3   271  LEU271      0.1596
    122  C         14.3350   13.7430   16.0520 C.2   271  LEU271      0.2287
    123  O         13.8080   14.6790   16.6790 O.2   271  LEU271     -0.2864
    124  CB        13.4210   11.4980   16.5210 C.3   271  LEU271      0.0297
    125  CG        13.6380   10.0270   16.8790 C.3   271  LEU271      0.0022
    126  CD1       12.2740    9.3830   16.8390 C.3   271  LEU271      0.0001
    127  CD2       14.6010    9.4070   15.9330 C.3   271  LEU271      0.0001
    128  N         12.2430   16.1980   13.5840 N.3   273  VAL273     -0.1245
    129  CA        10.7920   16.3260   13.5890 C.3   273  VAL273      0.1561
    130  C         10.0930   15.4590   12.5170 C.2   273  VAL273      0.2260
    131  O          8.9500   15.0370   12.7120 O.2   273  VAL273     -0.2867
    132  CB        10.3780   17.8160   13.4750 C.3   273  VAL273      0.0252
    133  CG1       10.6830   18.2930   12.0300 C.3   273  VAL273      0.0019
    134  CG2        8.9380   18.0000   13.9520 C.3   273  VAL273      0.0019
    135  N         10.2730   11.9910   14.1500 N.3   276  PHE276     -0.1227
    136  CA         9.3850   11.9290   15.3010 C.3   276  PHE276      0.1736
    137  C          7.8790   11.9010   14.9220 C.2   276  PHE276      0.2595
    138  O          7.1330   11.0590   15.4000 O.2   276  PHE276     -0.2718
    139  CB         9.6540   13.0650   16.2820 C.3   276  PHE276      0.0547
    140  CG         8.8950   12.8830   17.5580 C.ar  276  PHE276     -0.0202
    141  CD1        9.4200   12.0920   18.5680 C.ar  276  PHE276     -0.0042
    142  CD2        7.6190   13.4250   17.7030 C.ar  276  PHE276     -0.0042
    143  CE1        8.7050   11.8930   19.7570 C.ar  276  PHE276     -0.0003
    144  CE2        6.8870   13.1910   18.8410 C.ar  276  PHE276     -0.0003
    145  CZ         7.4290   12.4090   19.8530 C.ar  276  PHE276     -0.0000
    146  N          7.4180   12.8350   14.0910 N.am  277  HIS277     -0.1975
    147  CA         6.0300   12.8210   13.6390 C.3   277  HIS277      0.1656
    148  C          5.5790   11.4990   12.9650 C.2   277  HIS277      0.2291
    149  O          4.5090   10.9800   13.2320 O.2   277  HIS277     -0.2864
    150  CB         5.8090   13.9740   12.6680 C.3   277  HIS277      0.0771
    151  CG         5.7310   15.3080   13.3520 C.ar  277  HIS277      0.0820
    152  ND1        5.7030   16.4940   12.6570 N.ar  277  HIS277     -0.2267
    153  CD2        5.6350   15.6350   14.6610 C.ar  277  HIS277      0.1154
    154  CE1        5.5830   17.5010   13.5020 C.ar  277  HIS277      0.1986
    155  NE2        5.5160   17.0070   14.7300 N.ar  277  HIS277     -0.2212
    156  N          4.9800   16.3390   27.1550 N.3   290  SER290     -0.1202
    157  CA         5.2150   17.3250   26.1290 C.3   290  SER290      0.2020
    158  C          3.9520   18.1140   25.8440 C.2   290  SER290      0.2619
    159  O          2.8800   17.5580   25.7950 O.2   290  SER290     -0.2717
    160  CB         5.7310   16.6710   24.8260 C.3   290  SER290      0.2103
    161  OG         5.6200   17.5450   23.7120 O.3   290  SER290     -0.2182
    162  N          4.0970   19.4150   25.5900 N.am  291  GLY291     -0.1942
    163  CA         2.9710   20.2440   25.1590 C.3   291  GLY291      0.2014
    164  C          2.6330   20.0010   23.6980 C.2   291  GLY291      0.2639
    165  O          1.4840   19.7150   23.3620 O.2   291  GLY291     -0.2714
    166  N          3.6430   20.0600   22.8300 N.am  292  GLY292     -0.1939
    167  CA         3.4090   19.8890   21.3890 C.3   292  GLY292      0.2014
    168  C          2.7910   18.5460   21.0110 C.2   292  GLY292      0.2638
    169  O          1.9230   18.4680   20.1360 O.2   292  GLY292     -0.2714
    170  N          3.2360   17.4830   21.6530 N.am  293  VAL293     -0.1977
    171  CA         2.6960   16.1510   21.3430 C.3   293  VAL293      0.1596
    172  C          1.1710   16.1310   21.6170 C.2   293  VAL293      0.2287
    173  O          0.4220   15.4940   20.8790 O.2   293  VAL293     -0.2864
    174  CB         3.4060   15.0470   22.1390 C.3   293  VAL293      0.0276
    175  CG1        2.7190   13.6880   21.9020 C.3   293  VAL293      0.0022
    176  CG2        4.9080   15.0110   21.8070 C.3   293  VAL293      0.0022
    177  N         -0.5730   17.5080   18.4730 N.3   296  GLU296     -0.1196
    178  CA        -0.3380   16.7190   17.2800 C.3   296  GLU296      0.1783
    179  C         -1.1150   15.3870   17.3110 C.2   296  GLU296      0.2306
    180  O         -1.7150   14.9610   16.3140 O.2   296  GLU296     -0.2863
    181  CB         1.1640   16.4570   17.1740 C.2   296  GLU296      0.0071
    182  CG         2.0400   17.6880   16.8620 C.2   296  GLU296      0.0834
    183  CD         3.5290   17.5650   17.1950 C.2   296  GLU296      0.3877
    184  OE1        3.9630   16.5730   17.8520 O.co2 296  GLU296     -0.2406
    185  OE2        4.2840   18.5230   16.8290 O.co2 296  GLU296     -0.2406
@<TRIPOS>BOND
     1    49    48    2
     2   133   132    1
     3   130   131    2
     4   130   129    1
     5    48    47    1
     6   152   151   ar
     7   152   154   ar
     8   150   151    1
     9   150   147    1
    10   148   149    2
    11   148   147    1
    12   151   153   ar
    13   132   129    1
    14   132   134    1
    15   154   155   ar
    16   128   129    1
    17   147   146    1
    18    47    46    1
    19    47    50    1
    20    22    21    2
    21    51    50    1
    22   146   137   am
    23   135   136    1
    24    30    29    2
    25   153   155   ar
    26    50    52    1
    27    21    20    1
    28    21    27   am
    29   137   136    1
    30   137   138    2
    31    29    28    1
    32    25    23    1
    33    20    23    1
    34    20    19    1
    35   136   139    1
    36    28    27    1
    37    28    31    1
    38    23    24    1
    39    24    26    1
    40   127   125    1
    41   122   123    2
    42   122   121    1
    43   139   140    1
    44   180   179    2
    45   124   121    1
    46   124   125    1
    47   121   120    1
    48   185   183   ar
    49   126   125    1
    50   182   181    2
    51   182   183    1
    52    31    32    1
    53   181   178    1
    54   183   184   ar
    55   178   179    1
    56   178   177    1
    57   140   142   ar
    58   140   141   ar
    59    32    33    1
    60   142   144   ar
    61   116   115    2
    62   120   115   am
    63     4     3    2
    64   141   143   ar
    65   115   114    1
    66   144   145   ar
    67    15    14    2
    68    33    34    1
    69     6     7    1
    70     6     5    1
    71    34    35    1
    72     3     2    1
    73     3    12   am
    74    14    13    1
    75     2     5    1
    76     2     1    1
    77     7     8    1
    78   143   145   ar
    79   114   117    1
    80   114   113    1
    81   169   168    2
    82    13    12    1
    83    13    16    1
    84   117   118    1
    85    12    18    1
    86   113   119    1
    87   101   100    1
    88   101   102    1
    89   173   172    2
    90   168   167    1
    91   168   170   am
    92    10     9    1
    93     8     9    2
    94    39    38    2
    95   100    97    1
    96   171   172    1
    97   171   170    1
    98   171   174    1
    99   167   166    1
   100     9    11    1
   101   119   118    1
   102    16    17    1
   103   176   174    1
   104   175   174    1
   105    38    37    1
   106    18    17    1
   107   102    96    1
   108    97    96    1
   109    97    98    1
   110    40    37    1
   111    40    41    1
   112   166   164   am
   113    37    36    1
   114    42    41   ar
   115    42    44   ar
   116   165   164    2
   117    41    43   ar
   118    74    72    1
   119    98    99    2
   120   164   163    1
   121   161   160    1
   122    44    45   ar
   123   160   157    1
   124    43    45   ar
   125    72    73    1
   126    72    69    1
   127    67    65    1
   128   163   162    1
   129    66    65    1
   130    53    54    1
   131   162   158   am
   132    68    69    1
   133   159   158    2
   134   158   157    1
   135    65    62    1
   136    69    70    1
   137   104   103    1
   138   104   105    1
   139   104   107    1
   140   157   156    1
   141   105   106    2
   142   110   112   ar
   143   110   108   ar
   144    61    62    1
   145    61    55   am
   146    84    82   ar
   147    84    83   ar
   148   112   111   ar
   149    59    58   ar
   150    54    55    1
   151    54    57    1
   152   107   108    1
   153   108   109   ar
   154    60    58   ar
   155    58    57    1
   156    62    63    1
   157    82    80   ar
   158    83    81   ar
   159   111   109   ar
   160    70    71    2
   161    55    56    2
   162    64    63    2
   163    80    81   ar
   164    80    79    1
   165    94    93    1
   166    79    76    1
   167    95    93    1
   168    93    92    2
   169    75    76    1
   170    76    77    1
   171    92    91    1
   172    77    78    2
   173    77    85   am
   174    91    90    1
   175    85    86    1
   176    90    89    1
   177    86    89    1
   178    86    87    1
   179    87    88    2
