@<TRIPOS>MOLECULE
tmp/3berA02.pdb
 107 102 0 0 0
SMALL
GASTEIGER

@<TRIPOS>ATOM
      1  N         23.9310   -0.5060   20.7120 N.3    53  ASP53      -0.1239
      2  CA        22.6800    0.0010   20.1300 C.3    53  ASP53       0.1674
      3  C         22.7380    1.5100   20.0860 C.2    53  ASP53       0.2266
      4  O         23.4290    2.1340   20.8990 O.2    53  ASP53      -0.2867
      5  CB        21.4520   -0.4800   20.9010 C.3    53  ASP53       0.1410
      6  CG        21.0820   -1.9360   20.5820 C.2    53  ASP53       0.3668
      7  OD1       21.8120   -2.6300   19.8620 O.co2  53  ASP53      -0.2456
      8  OD2       19.9990   -2.3450   21.0550 O.co2  53  ASP53      -0.2456
      9  N          8.5240   -6.8160   15.9180 N.3   182  LEU182     -0.1231
     10  CA         9.4230   -7.0160   17.0480 C.3   182  LEU182      0.1693
     11  C          9.2300   -8.3710   17.7030 C.2   182  LEU182      0.2591
     12  O         10.1700   -8.8730   18.3510 O.2   182  LEU182     -0.2718
     13  CB         9.2380   -5.9080   18.0970 C.3   182  LEU182      0.0284
     14  CG         9.7080   -4.5050   17.6660 C.3   182  LEU182      0.0019
     15  CD1        9.3770   -3.5360   18.8090 C.3   182  LEU182      0.0001
     16  CD2       11.1920   -4.4400   17.3260 C.3   182  LEU182      0.0001
     17  N          8.0550   -8.9780   17.5630 N.am  183  LYS183     -0.1980
     18  CA         7.8010  -10.3030   18.1420 C.3   183  LYS183      0.1596
     19  C          8.3910  -11.4380   17.3410 C.2   183  LYS183      0.2287
     20  O          8.5570  -12.5500   17.8730 O.2   183  LYS183     -0.2864
     21  CB         6.2890  -10.5580   18.2760 C.3   183  LYS183      0.0298
     22  CG         5.6240   -9.6790   19.3030 C.3   183  LYS183      0.0038
     23  CD         6.3410   -9.7090   20.6780 C.3   183  LYS183      0.0206
     24  CE         6.0600  -10.9970   21.4630 C.3   183  LYS183      0.1093
     25  NZ         4.6820  -10.9460   22.0760 N.3   183  LYS183     -0.1314
     26  N         11.3120  -11.3130   15.3510 N.3   185  ILE185     -0.1231
     27  CA        12.7590  -11.1960   15.0820 C.3   185  ILE185      0.1678
     28  C         13.5410  -11.6620   16.3170 C.2   185  ILE185      0.2434
     29  O         12.9560  -11.7950   17.3900 O.2   185  ILE185     -0.2733
     30  CB        13.1700   -9.7610   14.6520 C.3   185  ILE185      0.0265
     31  CG1       12.8950   -8.7660   15.7760 C.3   185  ILE185      0.0019
     32  CG2       12.4380   -9.3770   13.3600 C.3   185  ILE185      0.0020
     33  CD1       13.3230   -7.3330   15.4450 C.3   185  ILE185      0.0001
     34  N         14.8450  -11.9430   16.1630 N.am  186  PRO186     -0.2718
     35  CA        15.6290  -12.3340   17.3320 C.3   186  PRO186      0.1535
     36  C         15.8580  -11.1890   18.2790 C.2   186  PRO186      0.2598
     37  O         16.0830  -10.0330   17.8560 O.2   186  PRO186     -0.2715
     38  CB        16.9980  -12.7240   16.7380 C.3   186  PRO186      0.0310
     39  CG        16.8020  -12.8590   15.2780 C.3   186  PRO186      0.0237
     40  CD        15.6210  -11.9830   14.9040 C.3   186  PRO186      0.0939
     41  N         15.8560  -11.5080   19.5680 N.am  187  ARG187     -0.1978
     42  CA        16.2650  -10.5400   20.5690 C.3   187  ARG187      0.1597
     43  C         17.7610  -10.2160   20.4770 C.2   187  ARG187      0.2287
     44  O         18.1910   -9.0410   20.6960 O.2   187  ARG187     -0.2864
     45  CB        15.9810  -11.1030   21.9530 C.3   187  ARG187      0.0334
     46  CG        16.5600  -10.1660   23.0380 C.3   187  ARG187      0.0492
     47  CD        15.9960  -10.4910   24.4270 C.3   187  ARG187      0.2205
     48  NE        14.5470  -10.2300   24.4720 N.pl3 187  ARG187     -0.0865
     49  CZ        13.9860   -9.0290   24.6490 C.cat 187  ARG187      0.5346
     50  NH1       14.7320   -7.9350   24.8490 N.pl3 187  ARG187      0.1354
     51  NH2       12.6690   -8.9230   24.6440 N.pl3 187  ARG187      0.1354
     52  N         20.4660   -9.1330   18.7450 N.3   189  ARG189     -0.1245
     53  CA        20.7100   -8.3810   17.5250 C.3   189  ARG189      0.1563
     54  C         21.2480   -7.0190   17.9630 C.2   189  ARG189      0.2260
     55  O         21.1750   -6.6350   19.1310 O.2   189  ARG189     -0.2867
     56  CB        19.3940   -8.1880   16.7290 C.3   189  ARG189      0.0307
     57  CG        18.4100   -7.3020   17.4420 C.3   189  ARG189      0.0489
     58  CD        17.1550   -7.0100   16.6190 C.3   189  ARG189      0.2205
     59  NE        16.3880   -5.9910   17.3220 N.pl3 189  ARG189     -0.0865
     60  CZ        15.4110   -6.2390   18.1960 C.cat 189  ARG189      0.5346
     61  NH1       14.9850   -7.4840   18.4390 N.pl3 189  ARG189      0.1354
     62  NH2       14.7810   -5.2470   18.8050 N.pl3 189  ARG189      0.1354
     63  N         20.5960   -2.9510   17.2470 N.3   191  THR191     -0.1218
     64  CA        19.4740   -2.1060   16.8250 C.3   191  THR191      0.1862
     65  C         19.8530   -0.6430   16.7880 C.2   191  THR191      0.2287
     66  O         20.5200   -0.1240   17.7120 O.2   191  THR191     -0.2866
     67  CB        18.2470   -2.3250   17.7340 C.3   191  THR191      0.1770
     68  OG1       17.9790   -3.7330   17.8260 O.3   191  THR191     -0.2211
     69  CG2       16.9930   -1.6450   17.1860 C.3   191  THR191      0.0375
     70  N         12.3670    1.9700   24.2710 N.3   207  ARG207     -0.1231
     71  CA        12.4560    1.0830   25.4440 C.3   207  ARG207      0.1694
     72  C         12.0210   -0.3430   25.0850 C.2   207  ARG207      0.2592
     73  O         12.4430   -1.2830   25.7520 O.2   207  ARG207     -0.2718
     74  CB        11.6100    1.6640   26.5830 C.3   207  ARG207      0.0321
     75  CG        12.2740    2.8430   27.2630 C.3   207  ARG207      0.0489
     76  CD        11.2750    3.6300   28.0810 C.3   207  ARG207      0.2205
     77  NE        11.9220    4.7170   28.8060 N.pl3 207  ARG207     -0.0865
     78  CZ        11.2600    5.6290   29.5130 C.cat 207  ARG207      0.5346
     79  NH1        9.9390    5.6020   29.5590 N.pl3 207  ARG207      0.1354
     80  NH2       11.9300    6.5480   30.1890 N.pl3 207  ARG207      0.1354
     81  N         11.2140   -0.5100   24.0340 N.am  208  ALA208     -0.1966
     82  CA        10.7760   -1.8380   23.5650 C.3   208  ALA208      0.1728
     83  C         11.7830   -2.5130   22.6320 C.2   208  ALA208      0.2616
     84  O         11.7520   -3.7270   22.4640 O.2   208  ALA208     -0.2715
     85  CB         9.4310   -1.7210   22.8570 C.3   208  ALA208      0.0334
     86  N         12.6650   -1.7410   22.0010 N.am  209  ALA209     -0.1963
     87  CA        13.3970   -2.2750   20.8520 C.3   209  ALA209      0.1728
     88  C         14.9030   -2.1590   20.9700 C.2   209  ALA209      0.2616
     89  O         15.6080   -2.7630   20.1620 O.2   209  ALA209     -0.2715
     90  CB        12.9080   -1.5990   19.5700 C.3   209  ALA209      0.0334
     91  N         15.4070   -1.3990   21.9400 N.am  210  LEU210     -0.1963
     92  CA        16.8610   -1.1660   22.0640 C.3   210  LEU210      0.1728
     93  C         17.3690   -1.5910   23.4290 C.2   210  LEU210      0.2616
     94  O         16.6370   -1.4820   24.4250 O.2   210  LEU210     -0.2715
     95  CB        17.2340    0.3000   21.8030 C.3   210  LEU210      0.0311
     96  CG        17.1550    0.6530   20.2870 C.3   210  LEU210      0.0022
     97  CD1       15.7360    0.9910   19.8460 C.3   210  LEU210      0.0001
     98  CD2       18.1530    1.7510   19.8780 C.3   210  LEU210      0.0001
     99  N         18.6050   -2.0420   23.4690 N.am  211  LYS211     -0.1977
    100  CA        19.2630   -2.4450   24.7100 C.3   211  LYS211      0.1596
    101  C         20.4340   -1.5240   24.9950 C.2   211  LYS211      0.2287
    102  O         21.3560   -1.4620   24.2040 O.2   211  LYS211     -0.2864
    103  CB        19.7750   -3.8810   24.5770 C.3   211  LYS211      0.0298
    104  CG        20.3170   -4.4570   25.9190 C.3   211  LYS211      0.0038
    105  CD        19.1720   -4.5830   26.9570 C.3   211  LYS211      0.0206
    106  CE        19.6150   -5.2480   28.2530 C.3   211  LYS211      0.1093
    107  NZ        18.5470   -6.1300   28.8080 N.3   211  LYS211     -0.1314
@<TRIPOS>BOND
     1    32    30    1
     2    30    27    1
     3    30    31    1
     4    40    39    1
     5    40    34    1
     6    27    26    1
     7    27    28    1
     8    39    38    1
     9    33    31    1
    10     9    10    1
    11    34    28   am
    12    34    35    1
    13    28    29    2
    14    58    59    1
    15    58    57    1
    16    56    57    1
    17    56    53    1
    18    38    35    1
    19    65    64    1
    20    65    66    2
    21    64    63    1
    22    64    67    1
    23    10    11    1
    24    10    13    1
    25    69    67    1
    26    59    60    2
    27    16    14    1
    28    35    36    1
    29    19    20    2
    30    19    18    1
    31    53    54    1
    32    53    52    1
    33    17    11   am
    34    17    18    1
    35    14    13    1
    36    14    15    1
    37    11    12    2
    38    67    68    1
    39    37    36    2
    40    54    55    2
    41    18    21    1
    42    60    61    1
    43    60    62    1
    44    21    22    1
    45    36    41   am
    46    22    23    1
    47    41    42    1
    48    90    87    1
    49    97    96    1
    50     7     6   ar
    51    98    96    1
    52     3     2    1
    53     3     4    2
    54     2     1    1
    55     2     5    1
    56    89    88    2
    57    96    95    1
    58    43    42    1
    59    43    44    2
    60    42    45    1
    61     6     5    1
    62     6     8   ar
    63    23    24    1
    64    87    88    1
    65    87    86    1
    66    88    91   am
    67    24    25    1
    68    95    92    1
    69    91    92    1
    70    45    46    1
    71    86    83   am
    72    92    93    1
    73    84    83    2
    74    83    82    1
    75    85    82    1
    76    46    47    1
    77    93    99   am
    78    93    94    2
    79    99   100    1
    80    82    81    1
    81    81    72   am
    82   102   101    2
    83    70    71    1
    84    47    48    1
    85    48    49    2
    86   103   100    1
    87   103   104    1
    88    51    49    1
    89    49    50    1
    90   100   101    1
    91    72    71    1
    92    72    73    2
    93    71    74    1
    94   104   105    1
    95    74    75    1
    96   105   106    1
    97    75    76    1
    98    76    77    1
    99   106   107    1
   100    77    78    2
   101    78    79    1
   102    78    80    1
