@<TRIPOS>MOLECULE
tmp/3berA00.pdb
 130 128 0 0 0
SMALL
GASTEIGER

@<TRIPOS>ATOM
      1  N         36.9950    8.4450    7.8860 N.3    16  PHE16      -0.1241
      2  CA        36.2790    7.1950    8.1100 C.3    16  PHE16       0.1605
      3  C         37.1800    6.1080    8.7330 C.2    16  PHE16       0.2264
      4  O         36.7640    5.3510    9.5880 O.2    16  PHE16      -0.2867
      5  CB        35.6190    6.7070    6.8350 C.3    16  PHE16       0.0534
      6  CG        34.3800    7.4780    6.4590 C.ar   16  PHE16      -0.0203
      7  CD1       33.1590    7.2610    7.1380 C.ar   16  PHE16      -0.0042
      8  CD2       34.4150    8.4120    5.4280 C.ar   16  PHE16      -0.0042
      9  CE1       32.0300    7.9730    6.7770 C.ar   16  PHE16      -0.0003
     10  CE2       33.2990    9.1180    5.0830 C.ar   16  PHE16      -0.0003
     11  CZ        32.0980    8.9050    5.7390 C.ar   16  PHE16      -0.0000
     12  N         32.3630    7.3920   -3.6510 N.3    32  LEU32      -0.1231
     13  CA        31.0750    8.0590   -3.6180 C.3    32  LEU32       0.1693
     14  C         31.2350    9.5650   -3.4050 C.2    32  LEU32       0.2593
     15  O         30.2620   10.3120   -3.4510 O.2    32  LEU32      -0.2718
     16  CB        30.2350    7.4700   -2.4760 C.3    32  LEU32       0.0284
     17  CG        28.8510    6.9580   -2.8340 C.3    32  LEU32       0.0019
     18  CD1       28.9800    5.9920   -4.0220 C.3    32  LEU32       0.0001
     19  CD2       28.1950    6.2890   -1.6350 C.3    32  LEU32       0.0001
     20  N         32.4630   10.0010   -3.1460 N.am   33  GLY33      -0.1942
     21  CA        32.7120   11.3980   -2.8200 C.3    33  GLY33       0.2014
     22  C         32.3470   11.7300   -1.3820 C.2    33  GLY33       0.2639
     23  O         32.0760   12.8790   -1.0690 O.2    33  GLY33      -0.2714
     24  N         32.3340   10.7090   -0.5240 N.am   34  TRP34      -0.1959
     25  CA        32.2180   10.9050    0.9290 C.3    34  TRP34       0.1771
     26  C         33.6330   10.9940    1.5010 C.2    34  TRP34       0.2620
     27  O         34.2120   10.0210    1.9720 O.2    34  TRP34      -0.2715
     28  CB        31.4530    9.7420    1.5690 C.3    34  TRP34       0.0590
     29  CG        29.9720    9.5720    1.2320 C.ar   34  TRP34       0.0006
     30  CD1       29.2580   10.1570    0.2210 C.ar   34  TRP34       0.0946
     31  CD2       29.0670    8.7050    1.9120 C.ar   34  TRP34       0.0152
     32  NE1       27.9440    9.7140    0.2490 N.ar   34  TRP34      -0.2442
     33  CE2       27.8010    8.8280    1.2850 C.ar   34  TRP34       0.0810
     34  CE3       29.2120    7.8330    3.0060 C.ar   34  TRP34       0.0012
     35  CZ2       26.6790    8.1150    1.7180 C.ar   34  TRP34       0.0191
     36  CZ3       28.0910    7.1230    3.4450 C.ar   34  TRP34       0.0001
     37  CH2       26.8470    7.2580    2.7910 C.ar   34  TRP34       0.0015
     38  N         34.2150   12.1830    1.4100 N.am   35  THR35      -0.1937
     39  CA        35.6200   12.3230    1.7960 C.3    35  THR35       0.2028
     40  C         35.7920   12.7060    3.2630 C.2    35  THR35       0.2642
     41  O         36.8680   12.5090    3.8200 O.2    35  THR35      -0.2714
     42  CB        36.3690   13.3580    0.9480 C.3    35  THR35       0.1808
     43  OG1       35.7020   14.6160    1.0710 O.3    35  THR35      -0.2208
     44  CG2       36.3910   12.9350   -0.5280 C.3    35  THR35       0.0379
     45  N         34.7340   13.2550    3.8840 N.am   36  LYS36      -0.1963
     46  CA        34.7220   13.4990    5.3280 C.3    36  LYS36       0.1713
     47  C         33.4130   12.9740    5.9240 C.2    36  LYS36       0.2458
     48  O         32.3430   13.2310    5.3810 O.2    36  LYS36      -0.2730
     49  CB        34.8670   14.9930    5.6690 C.3    36  LYS36       0.0311
     50  CG        36.1230   15.6520    5.0720 C.3    36  LYS36       0.0038
     51  CD        36.2290   17.1230    5.5160 C.3    36  LYS36       0.0206
     52  CE        37.4070   17.8800    4.8620 C.3    36  LYS36       0.1093
     53  NZ        38.7310   17.2960    5.1970 N.3    36  LYS36      -0.1314
     54  N         33.5100   12.2940    7.0740 N.am   37  PRO37      -0.2716
     55  CA        32.2890   11.8090    7.7390 C.3    37  PRO37       0.1536
     56  C         31.5050   12.9700    8.3140 C.2    37  PRO37       0.2599
     57  O         32.0900   13.9910    8.7350 O.2    37  PRO37      -0.2715
     58  CB        32.8260   10.9290    8.8570 C.3    37  PRO37       0.0310
     59  CG        34.2240   11.5230    9.1550 C.3    37  PRO37       0.0237
     60  CD        34.7360   11.9580    7.8130 C.3    37  PRO37       0.0939
     61  N         30.1890   12.8500    8.3390 N.am   38  THR38      -0.1951
     62  CA        29.3410   13.8370    8.9920 C.3    38  THR38       0.1897
     63  C         29.3580   13.6350   10.5160 C.2    38  THR38       0.2313
     64  O         29.8860   12.6370   11.0330 O.2    38  THR38      -0.2863
     65  CB        27.9090   13.7610    8.5040 C.3    38  THR38       0.1794
     66  OG1       27.3560   12.5060    8.9530 O.3    38  THR38      -0.2208
     67  CG2       27.8280   13.8460    6.9540 C.3    38  THR38       0.0378
     68  N         27.7310   10.4730   11.7030 N.3    41  GLN41      -0.1245
     69  CA        28.6520    9.3950   11.3850 C.3    41  GLN41       0.1566
     70  C         29.7980    9.3070   12.3870 C.2    41  GLN41       0.2260
     71  O         30.1160    8.2180   12.9040 O.2    41  GLN41      -0.2867
     72  CB        29.1310    9.5410    9.9340 C.3    41  GLN41       0.0367
     73  CG        27.9780    9.2850    8.9420 C.3    41  GLN41       0.0905
     74  CD        28.2240    9.7880    7.5410 C.2    41  GLN41       0.2608
     75  OE1       29.3150   10.3090    7.2090 O.2    41  GLN41      -0.2717
     76  NE2       27.2220    9.6210    6.6880 N.am   41  GLN41      -0.0878
     77  N         17.2340   13.9870    7.5770 N.3    60  THR60      -0.1203
     78  CA        17.8850   13.8140    6.2790 C.3    60  THR60       0.1994
     79  C         18.7440   15.0300    6.0550 C.2    60  THR60       0.2618
     80  O         18.3900   16.1370    6.4750 O.2    60  THR60      -0.2717
     81  CB        16.8910   13.5970    5.0870 C.3    60  THR60       0.1784
     82  OG1       17.6330   13.5010    3.8610 O.3    60  THR60      -0.2211
     83  CG2       15.9200   14.7430    4.9710 C.3    60  THR60       0.0376
     84  N         19.8910   14.8080    5.4300 N.am   61  GLY61      -0.1942
     85  CA        20.8350   15.8650    5.2800 C.3    61  GLY61       0.2014
     86  C         21.9540   15.7230    6.2820 C.2    61  GLY61       0.2640
     87  O         23.0120   16.2810    6.0590 O.2    61  GLY61      -0.2714
     88  N         21.7250   14.9810    7.3820 N.am   62  SER62      -0.1935
     89  CA        22.7820   14.7520    8.3760 C.3    62  SER62       0.2055
     90  C         23.7430   13.6200    8.0110 C.2    62  SER62       0.2644
     91  O         24.8150   13.4830    8.6070 O.2    62  SER62      -0.2714
     92  CB        22.1940   14.4600    9.7310 C.3    62  SER62       0.2130
     93  OG        21.5010   13.2360    9.6200 O.3    62  SER62      -0.2179
     94  N         23.3450   12.7620    7.0610 N.am   63  GLY63      -0.1939
     95  CA        24.1600   11.5880    6.7660 C.3    63  GLY63       0.2014
     96  C         23.8010   10.4010    7.6740 C.2    63  GLY63       0.2639
     97  O         24.6080    9.4930    7.8670 O.2    63  GLY63      -0.2714
     98  N         22.5750   10.3850    8.1810 N.am   64  LYS64      -0.1963
     99  CA        22.1730    9.2840    9.0450 C.3    64  LYS64       0.1728
    100  C         22.2000    7.9350    8.3440 C.2    64  LYS64       0.2616
    101  O         22.5220    6.9450    8.9750 O.2    64  LYS64      -0.2715
    102  CB        20.7940    9.5130    9.6630 C.3    64  LYS64       0.0311
    103  CG        19.7550   10.0660    8.7690 C.3    64  LYS64       0.0038
    104  CD        18.4810   10.1380    9.6300 C.3    64  LYS64       0.0206
    105  CE        17.3820   10.7150    8.8660 C.3    64  LYS64       0.1093
    106  NZ        16.2380    9.7980    8.9390 N.3    64  LYS64      -0.1314
    107  N         21.8850    7.8720    7.0420 N.am   65  THR65      -0.1951
    108  CA        21.9390    6.5650    6.3940 C.3    65  THR65       0.1897
    109  C         23.3250    5.9420    6.4500 C.2    65  THR65       0.2313
    110  O         23.4730    4.7550    6.7730 O.2    65  THR65      -0.2863
    111  CB        21.4700    6.6440    4.9350 C.3    65  THR65       0.1794
    112  OG1       20.1740    7.2670    4.9420 O.3    65  THR65      -0.2208
    113  CG2       21.3810    5.2750    4.2970 C.3    65  THR65       0.0378
    114  N         11.5450    6.7640    1.0750 N.3    94  LEU94      -0.1245
    115  CA        12.7300    6.6390    1.8930 C.3    94  LEU94       0.1561
    116  C         13.3860    5.2630    1.7260 C.2    94  LEU94       0.2260
    117  O         14.6080    5.1820    1.6830 O.2    94  LEU94      -0.2867
    118  CB        12.4350    6.9040    3.3720 C.3    94  LEU94       0.0270
    119  CG        13.6690    6.8890    4.2920 C.3    94  LEU94       0.0019
    120  CD1       14.7020    7.9870    3.9420 C.3    94  LEU94       0.0001
    121  CD2       13.3370    6.9520    5.8030 C.3    94  LEU94       0.0001
    122  N         21.8020    4.0520   -1.3280 N.3   101  GLN101     -0.1245
    123  CA        23.0450    4.2210   -0.6040 C.3   101  GLN101      0.1566
    124  C         23.6740    2.8750   -0.2850 C.2   101  GLN101      0.2260
    125  O         24.8930    2.7410   -0.4270 O.2   101  GLN101     -0.2867
    126  CB        22.8620    5.0880    0.6510 C.3   101  GLN101      0.0367
    127  CG        22.3760    6.5450    0.3290 C.3   101  GLN101      0.0905
    128  CD        22.4690    7.5230    1.4950 C.2   101  GLN101      0.2608
    129  OE1       23.4220    7.5190    2.2100 O.2   101  GLN101     -0.2717
    130  NE2       21.4520    8.3500    1.6740 N.am  101  GLN101     -0.0878
@<TRIPOS>BOND
     1    18    17    1
     2    12    13    1
     3    13    14    1
     4    13    16    1
     5    15    14    2
     6    14    20   am
     7    20    21    1
     8    17    16    1
     9    17    19    1
    10    21    22    1
    11    22    23    2
    12    22    24   am
    13   122   123    1
    14   123   124    1
    15   123   126    1
    16    44    42    1
    17    24    25    1
    18   125   124    2
    19    30    32   ar
    20    30    29   ar
    21    32    33   ar
    22   127   126    1
    23   127   128    1
    24    25    26    1
    25    25    28    1
    26    42    43    1
    27    42    39    1
    28   114   115    1
    29    29    28    1
    30    29    31   ar
    31    33    35   ar
    32    33    31   ar
    33    38    26   am
    34    38    39    1
    35   128   130   am
    36   128   129    2
    37    26    27    2
    38   117   116    2
    39    35    37   ar
    40   116   115    1
    41    39    40    1
    42   115   118    1
    43    31    34   ar
    44    37    36   ar
    45    34    36   ar
    46    40    41    2
    47    40    45   am
    48   118   119    1
    49    82    81    1
    50    45    46    1
    51   120   119    1
    52   119   121    1
    53   113   111    1
    54    52    53    1
    55    52    51    1
    56   111   112    1
    57   111   108    1
    58    83    81    1
    59    50    51    1
    60    50    49    1
    61    10     8   ar
    62    10    11   ar
    63    81    78    1
    64    85    84    1
    65    85    86    1
    66    46    49    1
    67    46    47    1
    68    48    47    2
    69     8     6   ar
    70    84    79   am
    71    11     9   ar
    72    47    54   am
    73    79    78    1
    74    79    80    2
    75    87    86    2
    76    78    77    1
    77    86    88   am
    78   108   109    1
    79   108   107    1
    80   109   110    2
    81     6     5    1
    82     6     7   ar
    83    76    74   am
    84    95    94    1
    85    95    96    1
    86     9     7   ar
    87     5     2    1
    88    67    65    1
    89   107   100   am
    90    94    90   am
    91    54    55    1
    92    54    60    1
    93    75    74    2
    94    88    89    1
    95    74    73    1
    96    96    97    2
    97    96    98   am
    98    55    56    1
    99    55    58    1
   100    60    59    1
   101     1     2    1
   102    90    89    1
   103    90    91    2
   104     2     3    1
   105    98    99    1
   106    56    61   am
   107    56    57    2
   108    61    62    1
   109   100   101    2
   110   100    99    1
   111    89    92    1
   112    65    66    1
   113    65    62    1
   114     3     4    2
   115   103   104    1
   116   103   102    1
   117    58    59    1
   118   105   106    1
   119   105   104    1
   120    73    72    1
   121    62    63    1
   122    99   102    1
   123    93    92    1
   124    72    69    1
   125    63    64    2
   126    69    68    1
   127    69    70    1
   128    70    71    2
