@<TRIPOS>MOLECULE
tmp/3betA00.pdb
 178 174 0 0 0
SMALL
GASTEIGER

@<TRIPOS>ATOM
      1  N          8.7030   -0.5630   10.5250 N.3     3  TRP3       -0.1241
      2  CA         7.9210   -1.5360   11.2660 C.3     3  TRP3        0.1605
      3  C          6.9170   -2.3310   10.4500 C.2     3  TRP3        0.2264
      4  O          6.3910   -1.8610    9.4410 O.2     3  TRP3       -0.2867
      5  CB         7.2090   -0.8570   12.4390 C.3     3  TRP3        0.0550
      6  CG         6.0040   -0.0600   12.0520 C.ar    3  TRP3        0.0003
      7  CD1        5.9600    1.2650   11.7170 C.ar    3  TRP3        0.0946
      8  CD2        4.6550   -0.5400   11.9770 C.ar    3  TRP3        0.0152
      9  NE1        4.6610    1.6390   11.4430 N.ar    3  TRP3       -0.2442
     10  CE2        3.8430    0.5500   11.5960 C.ar    3  TRP3        0.0810
     11  CE3        4.0540   -1.7880   12.1970 C.ar    3  TRP3        0.0012
     12  CZ2        2.4570    0.4300   11.4310 C.ar    3  TRP3        0.0191
     13  CZ3        2.6790   -1.9080   12.0320 C.ar    3  TRP3        0.0001
     14  CH2        1.8960   -0.8050   11.6540 C.ar    3  TRP3        0.0015
     15  N         -0.6790   -2.1870    6.3450 N.3    62  HIS62      -0.1241
     16  CA        -0.7330   -2.7870    7.6830 C.3    62  HIS62       0.1621
     17  C         -2.1020   -3.4300    7.8890 C.2    62  HIS62       0.2264
     18  O         -2.2410   -4.4220    8.6080 O.2    62  HIS62      -0.2867
     19  CB        -0.5120   -1.7190    8.7580 C.3    62  HIS62       0.0745
     20  CG         0.7200   -0.8960    8.5440 C.ar   62  HIS62       0.0817
     21  ND1        1.9850   -1.4440    8.5110 N.ar   62  HIS62      -0.2268
     22  CD2        0.8800    0.4320    8.3380 C.ar   62  HIS62       0.1154
     23  CE1        2.8720   -0.4890    8.2930 C.ar   62  HIS62       0.1986
     24  NE2        2.2270    0.6590    8.1850 N.ar   62  HIS62      -0.2212
     25  N        -12.7640    6.2750   11.1210 N.3    90  GLN90      -0.1245
     26  CA       -12.4390    5.1110   10.2970 C.3    90  GLN90       0.1566
     27  C        -12.5540    3.8220   11.0900 C.2    90  GLN90       0.2260
     28  O        -12.6480    3.8460   12.3120 O.2    90  GLN90      -0.2867
     29  CB       -10.9980    5.2120    9.7740 C.3    90  GLN90       0.0367
     30  CG        -9.9310    5.2840   10.8870 C.3    90  GLN90       0.0905
     31  CD        -9.1520    3.9860   11.0830 C.2    90  GLN90       0.2608
     32  OE1       -9.7300    2.9040   11.1700 O.2    90  GLN90      -0.2717
     33  NE2       -7.8310    4.0990   11.1680 N.am   90  GLN90      -0.0878
     34  N        -11.1350   -0.5220   10.8590 N.3    92  HIS92      -0.1241
     35  CA       -10.2530   -1.4810   10.2150 C.3    92  HIS92       0.1621
     36  C        -10.2940   -2.7540   11.0360 C.2    92  HIS92       0.2264
     37  O        -10.9320   -2.8020   12.0930 O.2    92  HIS92      -0.2867
     38  CB        -8.8130   -0.9610   10.1820 C.3    92  HIS92       0.0745
     39  CG        -8.2630   -0.6380   11.5380 C.ar   92  HIS92       0.0817
     40  ND1       -8.5060    0.5610   12.1710 N.ar   92  HIS92      -0.2268
     41  CD2       -7.5280   -1.3770   12.4010 C.ar   92  HIS92       0.1154
     42  CE1       -7.9450    0.5470   13.3670 C.ar   92  HIS92       0.1986
     43  NE2       -7.3450   -0.6170   13.5310 N.ar   92  HIS92      -0.2212
     44  N         -7.9740   -6.5620   12.2240 N.3    94  HIS94      -0.1241
     45  CA        -6.7120   -7.2460   12.4690 C.3    94  HIS94       0.1621
     46  C         -7.1650   -8.6990   12.3560 C.2    94  HIS94       0.2264
     47  O         -8.1950   -9.0670   12.9180 O.2    94  HIS94      -0.2867
     48  CB        -6.2010   -6.9660   13.8830 C.3    94  HIS94       0.0745
     49  CG        -5.8510   -5.5330   14.1240 C.ar   94  HIS94       0.0817
     50  ND1       -4.6060   -5.0130   13.8440 N.ar   94  HIS94      -0.2268
     51  CD2       -6.5920   -4.5050   14.5980 C.ar   94  HIS94       0.1154
     52  CE1       -4.5940   -3.7260   14.1420 C.ar   94  HIS94       0.1986
     53  NE2       -5.7860   -3.3930   14.6000 N.ar   94  HIS94      -0.2212
     54  N        -11.9500   -2.6560   14.6720 N.3   117  HIS117     -0.1241
     55  CA       -11.6810   -1.4590   15.4460 C.3   117  HIS117      0.1621
     56  C        -12.3570   -0.2510   14.8010 C.2   117  HIS117      0.2264
     57  O        -12.0260    0.1290   13.6770 O.2   117  HIS117     -0.2867
     58  CB       -10.1620   -1.2330   15.5530 C.3   117  HIS117      0.0745
     59  CG        -9.4680   -2.2120   16.4540 C.ar  117  HIS117      0.0817
     60  ND1       -8.0980   -2.3710   16.4690 N.ar  117  HIS117     -0.2268
     61  CD2       -9.9520   -3.0590   17.3950 C.ar  117  HIS117      0.1154
     62  CE1       -7.7690   -3.2700   17.3810 C.ar  117  HIS117      0.1986
     63  NE2       -8.8760   -3.7020   17.9580 N.ar  117  HIS117     -0.2212
     64  N        -12.6740    3.4830   15.1080 N.3   119  VAL119     -0.1245
     65  CA       -11.9360    4.5960   15.6990 C.3   119  VAL119      0.1561
     66  C        -12.6960    5.9180   15.7350 C.2   119  VAL119      0.2260
     67  O        -13.2350    6.3560   14.7200 O.2   119  VAL119     -0.2867
     68  CB       -10.6060    4.7970   14.9280 C.3   119  VAL119      0.0252
     69  CG1       -9.7520    5.8610   15.6030 C.3   119  VAL119      0.0019
     70  CG2       -9.8630    3.4630   14.8330 C.3   119  VAL119      0.0019
     71  N         -8.4270   15.1920   14.5980 N.3   128  PHE128     -0.1227
     72  CA        -7.8550   13.8990   14.9240 C.3   128  PHE128      0.1736
     73  C         -6.3860   14.0150   15.3220 C.2   128  PHE128      0.2596
     74  O         -5.9480   13.3840   16.2870 O.2   128  PHE128     -0.2718
     75  CB        -8.0260   12.9660   13.7230 C.3   128  PHE128      0.0547
     76  CG        -7.5230   11.5760   13.9520 C.ar  128  PHE128     -0.0202
     77  CD1       -6.3060   11.1710   13.4190 C.ar  128  PHE128     -0.0042
     78  CD2       -8.2790   10.6580   14.6730 C.ar  128  PHE128     -0.0042
     79  CE1       -5.8510    9.8700   13.5970 C.ar  128  PHE128     -0.0003
     80  CE2       -7.8320    9.3560   14.8560 C.ar  128  PHE128     -0.0003
     81  CZ        -6.6160    8.9600   14.3160 C.ar  128  PHE128     -0.0000
     82  N         -5.6350   14.8300   14.5840 N.am  129  GLY129     -0.1957
     83  CA        -4.2230   15.0070   14.8760 C.3   129  GLY129      0.1869
     84  C         -3.9410   15.5430   16.2690 C.2   129  GLY129      0.2309
     85  O         -2.9770   15.1380   16.9140 O.2   129  GLY129     -0.2863
     86  N         -4.9500   12.6840   19.1490 N.3   132  VAL132     -0.1245
     87  CA        -4.0210   11.5990   19.4630 C.3   132  VAL132      0.1561
     88  C         -2.9100   12.0110   20.4240 C.2   132  VAL132      0.2260
     89  O         -2.1810   11.1620   20.9340 O.2   132  VAL132     -0.2867
     90  CB        -3.3860   10.9830   18.1790 C.3   132  VAL132      0.0252
     91  CG1       -4.4780   10.3940   17.3030 C.3   132  VAL132      0.0019
     92  CG2       -2.5920   12.0300   17.4140 C.3   132  VAL132      0.0019
     93  N         -8.7820    9.5750   21.9630 N.3   138  LEU138     -0.1245
     94  CA        -9.5000    8.6240   21.1260 C.3   138  LEU138      0.1561
     95  C        -10.2910    7.6030   21.9150 C.2   138  LEU138      0.2260
     96  O        -10.0080    7.3300   23.0800 O.2   138  LEU138     -0.2867
     97  CB        -8.5250    7.8650   20.2160 C.3   138  LEU138      0.0270
     98  CG        -7.6240    8.6370   19.2530 C.3   138  LEU138      0.0019
     99  CD1       -6.7620    7.6490   18.4860 C.3   138  LEU138      0.0001
    100  CD2       -8.4600    9.4600   18.2890 C.3   138  LEU138      0.0001
    101  N        -11.7900    3.7660   20.9280 N.3   140  VAL140     -0.1245
    102  CA       -11.8800    2.7430   19.9000 C.3   140  VAL140      0.1561
    103  C        -12.8230    1.6490   20.3730 C.2   140  VAL140      0.2260
    104  O        -12.6530    1.0980   21.4650 O.2   140  VAL140     -0.2867
    105  CB       -10.5130    2.1050   19.5910 C.3   140  VAL140      0.0252
    106  CG1      -10.6660    1.0970   18.4580 C.3   140  VAL140      0.0019
    107  CG2       -9.5030    3.1770   19.2110 C.3   140  VAL140      0.0019
    108  N         -3.7090    2.2140   24.4270 N.3   194  SER194     -0.1202
    109  CA        -2.9940    2.9100   23.3590 C.3   194  SER194      0.2020
    110  C         -3.3450    2.4070   21.9690 C.2   194  SER194      0.2619
    111  O         -4.1930    1.5330   21.8030 O.2   194  SER194     -0.2717
    112  CB        -1.4970    2.6880   23.5390 C.3   194  SER194      0.2103
    113  OG        -1.1770    1.3400   23.2110 O.3   194  SER194     -0.2182
    114  N         -2.6690    2.9720   20.9700 N.am  195  LEU195     -0.1965
    115  CA        -2.8380    2.5280   19.5980 C.3   195  LEU195      0.1728
    116  C         -2.1050    1.1880   19.6450 C.2   195  LEU195      0.2617
    117  O         -1.1770    1.0250   20.4460 O.2   195  LEU195     -0.2715
    118  CB        -2.1100    3.4600   18.6230 C.3   195  LEU195      0.0311
    119  CG        -2.4080    4.9630   18.6280 C.3   195  LEU195      0.0022
    120  CD1       -1.4900    5.6530   17.6230 C.3   195  LEU195      0.0001
    121  CD2       -3.8660    5.2150   18.2840 C.3   195  LEU195      0.0001
    122  N         -2.4990    0.2330   18.8080 N.am  196  THR196     -0.1937
    123  CA        -1.8380   -1.0670   18.8220 C.3   196  THR196      0.2028
    124  C         -0.7300   -1.2210   17.7860 C.2   196  THR196      0.2643
    125  O         -0.1450   -2.2970   17.6560 O.2   196  THR196     -0.2714
    126  CB        -2.8410   -2.2190   18.6450 C.3   196  THR196      0.1808
    127  OG1       -3.4830   -2.1060   17.3720 O.3   196  THR196     -0.2208
    128  CG2       -3.8850   -2.1920   19.7620 C.3   196  THR196      0.0379
    129  N         -0.4590   -0.1570   17.0340 N.am  197  THR197     -0.1937
    130  CA         0.6290   -0.1760   16.0580 C.3   197  THR197      0.2013
    131  C          1.4220    1.1100   16.2630 C.2   197  THR197      0.2484
    132  O          0.9170    2.0740   16.8440 O.2   197  THR197     -0.2729
    133  CB         0.1330   -0.1810   14.5940 C.3   197  THR197      0.1807
    134  OG1       -0.1610    1.1610   14.1890 O.3   197  THR197     -0.2208
    135  CG2       -1.1140   -1.0340   14.4450 C.3   197  THR197      0.0379
    136  N          2.6850    1.1370   15.8120 N.am  198  PRO198     -0.2715
    137  CA         3.4990    2.3490   15.9690 C.3   198  PRO198      0.1521
    138  C          2.6820    3.5250   15.4370 C.2   198  PRO198      0.2440
    139  O          1.9390    3.3630   14.4690 O.2   198  PRO198     -0.2731
    140  CB         4.7140    2.0460   15.1050 C.3   198  PRO198      0.0310
    141  CG         4.8950    0.5680   15.3140 C.3   198  PRO198      0.0237
    142  CD         3.4680    0.0470   15.2000 C.3   198  PRO198      0.0939
    143  N          2.8220    4.7240   16.0330 N.am  199  PRO199     -0.2727
    144  CA         3.6730    5.1150   17.1650 C.3   199  PRO199      0.1402
    145  C          3.2130    4.6850   18.5660 C.2   199  PRO199      0.2269
    146  O          3.7560    5.1550   19.5700 O.2   199  PRO199     -0.2865
    147  CB         3.7450    6.6310   17.0190 C.3   199  PRO199      0.0296
    148  CG         2.3770    6.9680   16.5380 C.3   199  PRO199      0.0237
    149  CD         2.1190    5.9010   15.4860 C.3   199  PRO199      0.0939
    150  N          0.8090    5.4920   20.5060 N.3   201  LEU201     -0.1245
    151  CA         0.4260    6.5680   21.4270 C.3   201  LEU201      0.1561
    152  C         -0.6040    6.1290   22.4720 C.2   201  LEU201      0.2260
    153  O         -1.5770    5.4480   22.1520 O.2   201  LEU201     -0.2867
    154  CB        -0.1130    7.7640   20.6360 C.3   201  LEU201      0.0270
    155  CG         0.8720    8.3010   19.5980 C.3   201  LEU201      0.0019
    156  CD1        0.2200    9.4140   18.7950 C.3   201  LEU201      0.0001
    157  CD2        2.1350    8.7940   20.2980 C.3   201  LEU201      0.0001
    158  N         -5.8150    6.2660   23.9160 N.3   204  VAL204     -0.1245
    159  CA        -7.0700    5.5650   23.6780 C.3   204  VAL204      0.1561
    160  C         -7.8410    5.0150   24.8670 C.2   204  VAL204      0.2260
    161  O         -7.2710    4.4140   25.7730 O.2   204  VAL204     -0.2867
    162  CB        -6.8390    4.3660   22.7190 C.3   204  VAL204      0.0252
    163  CG1       -8.1720    3.7230   22.3390 C.3   204  VAL204      0.0019
    164  CG2       -6.0770    4.8240   21.4800 C.3   204  VAL204      0.0019
    165  N        -10.2840    2.2850   25.4920 N.3   206  TRP206     -0.1241
    166  CA       -10.7650    1.1040   24.7960 C.3   206  TRP206      0.1605
    167  C        -12.0940    0.6160   25.3320 C.2   206  TRP206      0.2264
    168  O        -12.3000    0.5450   26.5410 O.2   206  TRP206     -0.2867
    169  CB        -9.7420   -0.0370   24.8930 C.3   206  TRP206      0.0550
    170  CG        -8.6350    0.0830   23.8950 C.ar  206  TRP206      0.0003
    171  CD1       -7.4180    0.6820   24.0760 C.ar  206  TRP206      0.0946
    172  CD2       -8.6760   -0.3440   22.5320 C.ar  206  TRP206      0.0152
    173  NE1       -6.6990    0.6560   22.9030 N.ar  206  TRP206     -0.2442
    174  CE2       -7.4480    0.0330   21.9400 C.ar  206  TRP206      0.0810
    175  CE3       -9.6360   -1.0060   21.7500 C.ar  206  TRP206      0.0012
    176  CZ2       -7.1520   -0.2350   20.5980 C.ar  206  TRP206      0.0191
    177  CZ3       -9.3420   -1.2720   20.4180 C.ar  206  TRP206      0.0001
    178  CH2       -8.1070   -0.8850   19.8540 C.ar  206  TRP206      0.0015
@<TRIPOS>BOND
     1    15    16    1
     2    16    17    1
     3    16    19    1
     4    17    18    2
     5    24    23   ar
     6    24    22   ar
     7    23    21   ar
     8    22    20   ar
     9    21    20   ar
    10    20    19    1
    11     4     3    2
    12    29    26    1
    13    29    30    1
    14    38    35    1
    15    38    39    1
    16    35    34    1
    17    35    36    1
    18    26    27    1
    19    26    25    1
    20     3     2    1
    21     1     2    1
    22    30    31    1
    23    36    37    2
    24    31    33   am
    25    31    32    2
    26    27    28    2
    27     2     5    1
    28    12    10   ar
    29    12    14   ar
    30     9    10   ar
    31     9     7   ar
    32    39    40   ar
    33    39    41   ar
    34    10     8   ar
    35    14    13   ar
    36     7     6   ar
    37     8     6   ar
    38     8    11   ar
    39    13    11   ar
    40     6     5    1
    41    40    42   ar
    42    44    45    1
    43    46    45    1
    44    46    47    2
    45    41    43   ar
    46    45    48    1
    47    42    43   ar
    48    77    79   ar
    49    77    76   ar
    50    79    81   ar
    51    57    56    2
    52    75    76    1
    53    75    72    1
    54    50    49   ar
    55    50    52   ar
    56    48    49    1
    57    76    78   ar
    58    49    51   ar
    59    52    53   ar
    60   134   133    1
    61    81    80   ar
    62   135   133    1
    63   139   138    2
    64    82    83    1
    65    82    73   am
    66   133   130    1
    67    51    53   ar
    68    71    72    1
    69    54    55    1
    70    78    80   ar
    71    67    66    2
    72    56    55    1
    73    70    68    1
    74    83    84    1
    75    72    73    1
    76    68    69    1
    77    68    65    1
    78   140   141    1
    79   140   137    1
    80    64    65    1
    81   142   141    1
    82   142   136    1
    83    73    74    2
    84   138   137    1
    85   138   143   am
    86    55    58    1
    87   149   143    1
    88   149   148    1
    89    58    59    1
    90    65    66    1
    91   136   137    1
    92   136   131   am
    93   143   144    1
    94   130   131    1
    95   130   129    1
    96   131   132    2
    97    84    85    2
    98    59    60   ar
    99    59    61   ar
   100    60    62   ar
   101   148   147    1
   102   147   144    1
   103   129   124   am
   104   144   145    1
   105    91    90    1
   106   127   126    1
   107    62    63   ar
   108    61    63   ar
   109    92    90    1
   110   120   119    1
   111   125   124    2
   112   124   123    1
   113    90    87    1
   114   121   119    1
   115   100    98    1
   116   106   105    1
   117    99    98    1
   118   145   146    2
   119   118   119    1
   120   118   115    1
   121   126   123    1
   122   126   128    1
   123   156   155    1
   124   122   123    1
   125   122   116   am
   126    86    87    1
   127   107   105    1
   128    98    97    1
   129    87    88    1
   130   105   102    1
   131   115   116    1
   132   115   114    1
   133   155   157    1
   134   155   154    1
   135   116   117    2
   136   178   177   ar
   137   178   176   ar
   138   102   103    1
   139   102   101    1
   140    97    94    1
   141   103   104    2
   142   177   175   ar
   143    88    89    2
   144   150   151    1
   145   176   174   ar
   146   154   151    1
   147   114   110   am
   148    94    95    1
   149    94    93    1
   150   151   152    1
   151   164   162    1
   152   175   172   ar
   153   111   110    2
   154    95    96    2
   155   174   172   ar
   156   174   173   ar
   157   110   109    1
   158   153   152    2
   159   163   162    1
   160   172   170   ar
   161   162   159    1
   162   173   171   ar
   163   113   112    1
   164   109   112    1
   165   109   108    1
   166   159   158    1
   167   159   160    1
   168   170   171   ar
   169   170   169    1
   170   166   169    1
   171   166   167    1
   172   166   165    1
   173   160   161    2
   174   167   168    2
