@<TRIPOS>MOLECULE
tmp/3bexD01.pdb
 81 74 0 0 0
SMALL
GASTEIGER

@<TRIPOS>ATOM
      1  N          4.1690   -7.7100   39.0760 N.3    12  ASN12      -0.1240
      2  CA         5.2930   -7.0700   38.4250 C.3    12  ASN12       0.1653
      3  C          4.9130   -5.8170   37.6530 C.2    12  ASN12       0.2266
      4  O          5.7090   -4.8930   37.5680 O.2    12  ASN12      -0.2867
      5  CB         6.0210   -8.0570   37.5230 C.3    12  ASN12       0.1155
      6  CG         6.8850   -9.0050   38.3090 C.2    12  ASN12       0.2627
      7  OD1        7.9470   -8.6060   38.8060 O.2    12  ASN12      -0.2716
      8  ND2        6.4590  -10.2790   38.4080 N.am   12  ASN12      -0.0877
      9  N          4.9960  -10.4220   44.6370 N.3    65  VAL65      -0.1245
     10  CA         6.0700  -11.0570   43.8780 C.3    65  VAL65       0.1561
     11  C          7.1350  -10.0600   43.4350 C.2    65  VAL65       0.2260
     12  O          7.9010  -10.3350   42.5030 O.2    65  VAL65      -0.2867
     13  CB         5.5230  -11.8910   42.6940 C.3    65  VAL65       0.0252
     14  CG1        4.5730  -12.9760   43.2090 C.3    65  VAL65       0.0019
     15  CG2        4.8070  -11.0080   41.6810 C.3    65  VAL65       0.0019
     16  N          9.8660  -20.8830   47.3200 N.3   104  GLU104     -0.1231
     17  CA        10.1520  -20.1640   46.0790 C.3   104  GLU104      0.1699
     18  C          8.9050  -19.9240   45.2270 C.2   104  GLU104      0.2592
     19  O          8.9540  -19.1710   44.2340 O.2   104  GLU104     -0.2718
     20  CB        11.2310  -20.8850   45.2700 C.3   104  GLU104      0.0402
     21  CG        12.6420  -20.5810   45.7530 C.3   104  GLU104      0.1161
     22  CD        13.7190  -21.3780   45.0310 C.2   104  GLU104      0.3649
     23  OE1       13.4840  -21.8350   43.8810 O.co2 104  GLU104     -0.2457
     24  OE2       14.8130  -21.5550   45.6230 O.co2 104  GLU104     -0.2457
     25  N          7.8060  -20.5730   45.5930 N.am  105  VAL105     -0.1966
     26  CA         6.5490  -20.3980   44.8580 C.3   105  VAL105      0.1727
     27  C          6.0650  -18.9580   45.0460 C.2   105  VAL105      0.2616
     28  O          6.0450  -18.4120   46.1670 O.2   105  VAL105     -0.2715
     29  CB         5.4700  -21.4090   45.2970 C.3   105  VAL105      0.0290
     30  CG1        4.1760  -21.2130   44.5110 C.3   105  VAL105      0.0023
     31  CG2        5.9690  -22.8450   45.1190 C.3   105  VAL105      0.0023
     32  N          5.7110  -18.3190   43.9430 N.am  106  GLY106     -0.1955
     33  CA         5.2210  -16.9560   44.0040 C.3   106  GLY106      0.1869
     34  C          4.0050  -16.8280   44.9190 C.2   106  GLY106      0.2309
     35  O          3.1040  -17.6760   44.9020 O.2   106  GLY106     -0.2863
     36  N          1.5000  -14.9150   44.7650 N.3   108  ASP108     -0.1225
     37  CA         0.2460  -14.8400   44.0420 C.3   108  ASP108      0.1805
     38  C         -0.2810  -16.2540   43.7400 C.2   108  ASP108      0.2597
     39  O         -1.4840  -16.5060   43.8640 O.2   108  ASP108     -0.2718
     40  CB         0.3740  -13.9560   42.7830 C.3   108  ASP108      0.1424
     41  CG         1.4870  -14.3960   41.8240 C.2   108  ASP108      0.3668
     42  OD1        2.3650  -15.2260   42.1460 O.co2 108  ASP108     -0.2456
     43  OD2        1.4300  -13.8470   40.6820 O.co2 108  ASP108     -0.2456
     44  N          0.6190  -17.1670   43.3660 N.am  109  ARG109     -0.1979
     45  CA         0.2510  -18.5660   43.1220 C.3   109  ARG109      0.1597
     46  C         -0.2360  -19.2370   44.4020 C.2   109  ARG109      0.2287
     47  O         -1.2350  -19.9590   44.3900 O.2   109  ARG109     -0.2864
     48  CB         1.4290  -19.3240   42.5200 C.3   109  ARG109      0.0334
     49  CG         2.0170  -18.6070   41.2990 C.3   109  ARG109      0.0492
     50  CD         3.2320  -19.3510   40.7750 C.3   109  ARG109      0.2205
     51  NE         2.8590  -20.5560   40.0360 N.pl3 109  ARG109     -0.0865
     52  CZ         3.7410  -21.3270   39.4060 C.cat 109  ARG109      0.5346
     53  NH1        5.0410  -21.0490   39.4880 N.pl3 109  ARG109      0.1354
     54  NH2        3.3170  -22.3880   38.7160 N.pl3 109  ARG109      0.1354
     55  N          1.3130  -10.7510   34.1670 N.3   131  THR131     -0.1203
     56  CA         2.6050  -10.3790   33.5480 C.3   131  THR131      0.1994
     57  C          3.2220  -11.6290   32.9260 C.2   131  THR131      0.2617
     58  O          3.6720  -11.6190   31.7670 O.2   131  THR131     -0.2717
     59  CB         3.5920   -9.7760   34.5770 C.3   131  THR131      0.1784
     60  OG1        2.9860   -8.6510   35.2220 O.3   131  THR131     -0.2211
     61  CG2        4.8590   -9.3000   33.8710 C.3   131  THR131      0.0376
     62  N          3.2400  -12.6950   33.7150 N.am  132  ALA132     -0.1979
     63  CA         3.4440  -14.0530   33.2280 C.3   132  ALA132      0.1597
     64  C          2.1080  -14.7700   33.3360 C.2   132  ALA132      0.2287
     65  O          1.2370  -14.3610   34.1150 O.2   132  ALA132     -0.2864
     66  CB         4.4840  -14.7880   34.0700 C.3   132  ALA132      0.0319
     67  N          0.5890  -18.2440   34.5810 N.3   134  THR134     -0.1218
     68  CA         0.9410  -19.4190   35.3840 C.3   134  THR134      0.1862
     69  C         -0.1240  -20.4960   35.2830 C.2   134  THR134      0.2287
     70  O         -1.3120  -20.2000   35.0840 O.2   134  THR134     -0.2866
     71  CB         1.1200  -19.0870   36.8910 C.3   134  THR134      0.1770
     72  OG1       -0.0440  -18.4240   37.3800 O.3   134  THR134     -0.2211
     73  CG2        2.3430  -18.1790   37.1190 C.3   134  THR134      0.0375
     74  N          5.1070  -21.8790   33.9570 N.3   148  ILE148     -0.1245
     75  CA         5.1810  -20.4290   33.8050 C.3   148  ILE148      0.1561
     76  C          5.4380  -20.1340   32.3300 C.2   148  ILE148      0.2260
     77  O          6.3720  -20.6880   31.7390 O.2   148  ILE148     -0.2867
     78  CB         6.3220  -19.8190   34.6530 C.3   148  ILE148      0.0252
     79  CG1        6.0270  -20.0170   36.1340 C.3   148  ILE148      0.0019
     80  CG2        6.4990  -18.3190   34.3690 C.3   148  ILE148      0.0019
     81  CD1        7.2540  -19.7780   37.0250 C.3   148  ILE148      0.0001
@<TRIPOS>BOND
     1    77    76    2
     2    58    57    2
     3    76    75    1
     4    57    56    1
     5    57    62   am
     6    63    64    1
     7    63    62    1
     8    63    66    1
     9    64    65    2
    10    56    55    1
    11    56    59    1
    12    75    74    1
    13    75    78    1
    14    61    59    1
    15    80    78    1
    16    59    60    1
    17    67    68    1
    18    78    79    1
    19    70    69    2
    20    69    68    1
    21    68    71    1
    22    79    81    1
    23    71    73    1
    24    71    72    1
    25     5     6    1
    26     5     2    1
    27     4     3    2
    28     3     2    1
    29     6     8   am
    30     6     7    2
    31     2     1    1
    32    54    52    1
    33    52    53    1
    34    52    51    2
    35    51    50    1
    36    43    41   ar
    37    50    49    1
    38    49    48    1
    39    15    13    1
    40    41    42   ar
    41    41    40    1
    42    12    11    2
    43    48    45    1
    44    13    14    1
    45    13    10    1
    46    40    37    1
    47    45    44    1
    48    45    46    1
    49    44    38   am
    50    11    10    1
    51    38    39    2
    52    38    37    1
    53    10     9    1
    54    23    22   ar
    55    32    33    1
    56    32    27   am
    57    33    34    1
    58    37    36    1
    59    19    18    2
    60    47    46    2
    61    30    29    1
    62    26    27    1
    63    26    29    1
    64    26    25    1
    65    35    34    2
    66    22    24   ar
    67    22    21    1
    68    27    28    2
    69    31    29    1
    70    18    25   am
    71    18    17    1
    72    20    21    1
    73    20    17    1
    74    17    16    1
