@<TRIPOS>MOLECULE
tmp/3bf1F02.pdb
 120 113 0 0 0
SMALL
GASTEIGER

@<TRIPOS>ATOM
      1  N         13.6230   18.9220   49.1880 N.3     9  ASP9       -0.1239
      2  CA        14.9150   18.2800   48.9530 C.3     9  ASP9        0.1674
      3  C         14.7180   17.2620   47.8360 C.2     9  ASP9        0.2266
      4  O         14.2120   16.1730   48.0640 O.2     9  ASP9       -0.2867
      5  CB        15.4140   17.6080   50.2440 C.3     9  ASP9        0.1410
      6  CG        16.7040   16.8080   50.0610 C.2     9  ASP9        0.3668
      7  OD1       17.4620   17.0300   49.0800 O.co2   9  ASP9       -0.2456
      8  OD2       16.9700   15.9400   50.9260 O.co2   9  ASP9       -0.2456
      9  N         16.0530   14.6020   45.6280 N.3    11  GLY11      -0.1210
     10  CA        17.0990   13.6030   45.4580 C.3    11  GLY11       0.1956
     11  C         16.8960   12.8440   44.1660 C.2    11  GLY11       0.2612
     12  O         15.8820   13.0210   43.4980 O.2    11  GLY11      -0.2717
     13  N         17.8570   12.0010   43.8050 N.am   12  ASN12      -0.1960
     14  CA        17.7830   11.2360   42.5510 C.3    12  ASN12       0.1819
     15  C         16.6670   10.1930   42.5470 C.2    12  ASN12       0.2622
     16  O         16.0680    9.9220   41.5040 O.2    12  ASN12      -0.2715
     17  CB        19.1270   10.5740   42.2330 C.3    12  ASN12       0.1195
     18  CG        20.1580   11.5640   41.7490 C.2    12  ASN12       0.2630
     19  OD1       20.1450   11.9740   40.5880 O.2    12  ASN12      -0.2716
     20  ND2       21.0630   11.9600   42.6400 N.am   12  ASN12      -0.0877
     21  N         16.3910    9.6230   43.7150 N.am   13  THR13      -0.1937
     22  CA        15.3200    8.6440   43.8670 C.3    13  THR13       0.2028
     23  C         14.0460    9.2580   44.4320 C.2    13  THR13       0.2642
     24  O         12.9790    9.1100   43.8400 O.2    13  THR13      -0.2714
     25  CB        15.7310    7.5060   44.8040 C.3    13  THR13       0.1808
     26  OG1       17.0590    7.0760   44.4890 O.3    13  THR13      -0.2208
     27  CG2       14.7660    6.3510   44.6670 C.3    13  THR13       0.0379
     28  N         14.1680    9.9170   45.5870 N.am   14  HIS14      -0.1973
     29  CA        13.0310   10.5210   46.2740 C.3    14  HIS14       0.1656
     30  C         13.2260   11.9990   46.5590 C.2    14  HIS14       0.2291
     31  O         14.3490   12.4920   46.6490 O.2    14  HIS14      -0.2864
     32  CB        12.7330    9.7970   47.5910 C.3    14  HIS14       0.0771
     33  CG        12.5340    8.3240   47.4350 C.ar   14  HIS14       0.0820
     34  ND1       13.4270    7.3980   47.9240 N.ar   14  HIS14      -0.2267
     35  CD2       11.5600    7.6170   46.8170 C.ar   14  HIS14       0.1154
     36  CE1       13.0060    6.1810   47.6250 C.ar   14  HIS14       0.1986
     37  NE2       11.8740    6.2850   46.9560 N.ar   14  HIS14      -0.2212
     38  N         11.9570   14.9040   49.3750 N.3    16  VAL16      -0.1245
     39  CA        11.3470   15.1320   50.6810 C.3    16  VAL16       0.1561
     40  C         10.6830   16.5070   50.6770 C.2    16  VAL16       0.2260
     41  O         11.2640   17.4960   50.2100 O.2    16  VAL16      -0.2867
     42  CB        12.3800   14.9840   51.8470 C.3    16  VAL16       0.0252
     43  CG1       11.7630   15.3350   53.1840 C.3    16  VAL16       0.0019
     44  CG2       12.9460   13.5420   51.8890 C.3    16  VAL16       0.0019
     45  N          7.5680   12.2080   51.8910 N.3    30  ARG30      -0.1245
     46  CA         8.4990   11.7490   50.8760 C.3    30  ARG30       0.1563
     47  C          7.7260   11.1830   49.6910 C.2    30  ARG30       0.2260
     48  O          6.7390   10.4620   49.8660 O.2    30  ARG30      -0.2867
     49  CB         9.4270   10.6850   51.4660 C.3    30  ARG30       0.0307
     50  CG        10.7870   10.6110   50.8020 C.3    30  ARG30       0.0489
     51  CD        11.7970    9.9170   51.7090 C.3    30  ARG30       0.2205
     52  NE        11.8180    8.4720   51.5000 N.pl3  30  ARG30      -0.0865
     53  CZ        12.8890    7.7810   51.1120 C.cat  30  ARG30       0.5346
     54  NH1       14.0490    8.3970   50.9020 N.pl3  30  ARG30       0.1354
     55  NH2       12.8000    6.4650   50.9420 N.pl3  30  ARG30       0.1354
     56  N         19.3790   18.0010   43.5120 N.3    65  VAL65      -0.1245
     57  CA        20.4920   17.3800   42.7870 C.3    65  VAL65       0.1561
     58  C         20.0610   16.7790   41.4370 C.2    65  VAL65       0.2260
     59  O         20.7920   15.9960   40.8300 O.2    65  VAL65      -0.2867
     60  CB        21.2950   16.3710   43.6680 C.3    65  VAL65       0.0252
     61  CG1       21.9710   17.1140   44.8250 C.3    65  VAL65       0.0019
     62  CG2       20.4060   15.2460   44.1780 C.3    65  VAL65       0.0019
     63  N         22.1290    8.0210   51.1310 N.3   130  GLY130     -0.1210
     64  CA        20.9620    7.9800   50.2560 C.3   130  GLY130      0.1956
     65  C         21.2840    7.1720   49.0160 C.2   130  GLY130      0.2613
     66  O         21.9050    6.1010   49.1210 O.2   130  GLY130     -0.2717
     67  N         20.8760    7.6850   47.8490 N.am  131  THR131     -0.1938
     68  CA        21.1840    7.0690   46.5490 C.3   131  THR131      0.2028
     69  C         22.6930    6.8640   46.4380 C.2   131  THR131      0.2642
     70  O         23.1560    5.7630   46.1750 O.2   131  THR131     -0.2714
     71  CB        20.6480    7.9210   45.3590 C.3   131  THR131      0.1808
     72  OG1       19.2640    8.2150   45.5590 O.3   131  THR131     -0.2208
     73  CG2       20.7710    7.1720   44.0370 C.3   131  THR131      0.0379
     74  N         23.4390    7.9490   46.6430 N.am  132  ALA132     -0.1977
     75  CA        24.8640    7.9060   46.9200 C.3   132  ALA132      0.1597
     76  C         25.0650    8.1690   48.4100 C.2   132  ALA132      0.2287
     77  O         24.1680    8.6720   49.0820 O.2   132  ALA132     -0.2864
     78  CB        25.5980    8.9570   46.0940 C.3   132  ALA132      0.0319
     79  N         21.7290    0.4340   48.3530 N.3   153  PHE153     -0.1241
     80  CA        20.9160   -0.1630   47.3180 C.3   153  PHE153      0.1605
     81  C         21.5860   -0.1450   45.9370 C.2   153  PHE153      0.2264
     82  O         21.5410   -1.1360   45.2060 O.2   153  PHE153     -0.2867
     83  CB        19.5080    0.4240   47.2590 C.3   153  PHE153      0.0534
     84  CG        18.6650   -0.2270   46.2170 C.ar  153  PHE153     -0.0203
     85  CD1       18.0450   -1.4440   46.4760 C.ar  153  PHE153     -0.0042
     86  CD2       18.5530    0.3350   44.9450 C.ar  153  PHE153     -0.0042
     87  CE1       17.3000   -2.0810   45.4980 C.ar  153  PHE153     -0.0003
     88  CE2       17.8230   -0.3020   43.9560 C.ar  153  PHE153     -0.0003
     89  CZ        17.1860   -1.5080   44.2360 C.ar  153  PHE153     -0.0000
     90  N         22.1690   -3.4670   43.7440 N.3   157  HIS157     -0.1241
     91  CA        21.5500   -3.4110   42.4320 C.3   157  HIS157      0.1621
     92  C         22.5680   -3.5240   41.2930 C.2   157  HIS157      0.2264
     93  O         22.3090   -4.2180   40.2990 O.2   157  HIS157     -0.2867
     94  CB        20.6930   -2.1550   42.2660 C.3   157  HIS157      0.0745
     95  CG        20.0060   -2.0870   40.9410 C.ar  157  HIS157      0.0817
     96  ND1       20.5420   -1.4210   39.8590 N.ar  157  HIS157     -0.2268
     97  CD2       18.8510   -2.6430   40.5080 C.ar  157  HIS157      0.1154
     98  CE1       19.7280   -1.5410   38.8250 C.ar  157  HIS157      0.1986
     99  NE2       18.6980   -2.2830   39.1900 N.ar  157  HIS157     -0.2212
    100  N         19.3080   -9.9820   43.4050 N.3   168  LEU168     -0.1245
    101  CA        19.1230   -8.7160   44.1130 C.3   168  LEU168      0.1561
    102  C         18.9090   -8.9910   45.5980 C.2   168  LEU168      0.2260
    103  O         17.9310   -9.6240   45.9980 O.2   168  LEU168     -0.2867
    104  CB        17.9400   -7.9170   43.5430 C.3   168  LEU168      0.0270
    105  CG        17.6320   -6.5520   44.1850 C.3   168  LEU168      0.0019
    106  CD1       18.7500   -5.5350   43.9360 C.3   168  LEU168      0.0001
    107  CD2       16.3140   -5.9980   43.6890 C.3   168  LEU168      0.0001
    108  N         18.2540    8.6930   54.2900 N.3   219  GLY219     -0.1210
    109  CA        17.2300    7.6540   54.3910 C.3   219  GLY219      0.1956
    110  C         17.7390    6.2630   54.7280 C.2   219  GLY219      0.2611
    111  O         16.9920    5.4360   55.2660 O.2   219  GLY219     -0.2717
    112  N         19.0160    6.0090   54.4370 N.am  220  GLN220     -0.1979
    113  CA        19.5950    4.6770   54.5960 C.3   220  GLN220      0.1601
    114  C         20.4110    4.5160   55.8660 C.2   220  GLN220      0.2287
    115  O         20.9610    3.4440   56.1190 O.2   220  GLN220     -0.2864
    116  CB        20.4390    4.3240   53.3760 C.3   220  GLN220      0.0394
    117  CG        19.6670    4.4320   52.0750 C.3   220  GLN220      0.0908
    118  CD        18.4310    3.5700   52.0790 C.2   220  GLN220      0.2608
    119  OE1       18.5120    2.3490   52.2430 O.2   220  GLN220     -0.2717
    120  NE2       17.2730    4.1950   51.9000 N.am  220  GLN220     -0.0878
@<TRIPOS>BOND
     1    98    99   ar
     2    98    96   ar
     3    99    97   ar
     4    96    95   ar
     5    93    92    2
     6    97    95   ar
     7    19    18    2
     8    59    58    2
     9    95    94    1
    10    92    91    1
    11    58    57    1
    12    16    15    2
    13    18    17    1
    14    18    20   am
    15    17    14    1
    16    94    91    1
    17    91    90    1
    18    15    14    1
    19    15    21   am
    20    14    13    1
    21    57    56    1
    22    57    60    1
    23   100   101    1
    24    12    11    2
    25   104   101    1
    26   104   105    1
    27    60    62    1
    28    60    61    1
    29   107   105    1
    30    21    22    1
    31    13    11   am
    32    24    23    2
    33    22    23    1
    34    22    25    1
    35   106   105    1
    36    88    89   ar
    37    88    86   ar
    38    73    71    1
    39   101   102    1
    40    11    10    1
    41    89    87   ar
    42    23    28   am
    43    26    25    1
    44    27    25    1
    45    86    84   ar
    46    82    81    2
    47    71    72    1
    48    71    68    1
    49    10     9    1
    50    87    85   ar
    51    28    29    1
    52   102   103    2
    53    81    80    1
    54    78    75    1
    55    70    69    2
    56    84    85   ar
    57    84    83    1
    58    29    30    1
    59    29    32    1
    60    69    68    1
    61    69    74   am
    62    68    67    1
    63    30    31    2
    64    74    75    1
    65    35    37   ar
    66    35    33   ar
    67    75    76    1
    68    37    36   ar
    69    83    80    1
    70    80    79    1
    71    33    32    1
    72    33    34   ar
    73    36    34   ar
    74     3     4    2
    75     3     2    1
    76    67    65   am
    77    76    77    2
    78     2     1    1
    79     2     5    1
    80    65    66    2
    81    65    64    1
    82     7     6   ar
    83    38    39    1
    84    47    48    2
    85    47    46    1
    86     6     5    1
    87     6     8   ar
    88    41    40    2
    89    64    63    1
    90    40    39    1
    91    39    42    1
    92    50    49    1
    93    50    51    1
    94    46    49    1
    95    46    45    1
    96    54    53    1
    97    55    53    1
    98    53    52    2
    99    52    51    1
   100    42    44    1
   101    42    43    1
   102   120   118   am
   103   117   118    1
   104   117   116    1
   105   118   119    2
   106   116   113    1
   107   108   109    1
   108   109   110    1
   109   112   113    1
   110   112   110   am
   111   113   114    1
   112   110   111    2
   113   114   115    2
