@<TRIPOS>MOLECULE
tmp/3bf3C00.pdb
 97 89 0 0 0
SMALL
GASTEIGER

@<TRIPOS>ATOM
      1  N        -23.9350   18.8620  -11.1000 N.3     6  ASP6       -0.1239
      2  CA       -25.2420   18.2660  -10.8380 C.3     6  ASP6        0.1674
      3  C        -25.0650   17.2850   -9.6770 C.2     6  ASP6        0.2266
      4  O        -24.5460   16.1920   -9.8760 O.2     6  ASP6       -0.2867
      5  CB       -25.7380   17.5360  -12.0890 C.3     6  ASP6        0.1410
      6  CG       -27.0280   16.7570  -11.8590 C.2     6  ASP6        0.3668
      7  OD1      -27.8250   17.1290  -10.9700 O.co2   6  ASP6       -0.2456
      8  OD2      -27.2530   15.7580  -12.5800 O.co2   6  ASP6       -0.2456
      9  N        -26.3310   14.7200   -7.3560 N.3     8  GLY8       -0.1210
     10  CA       -27.3950   13.7260   -7.2040 C.3     8  GLY8        0.1956
     11  C        -27.2250   12.9190   -5.9340 C.2     8  GLY8        0.2611
     12  O        -26.2150   13.0160   -5.2520 O.2     8  GLY8       -0.2717
     13  N        -28.2270   12.1060   -5.6250 N.am    9  ASN9       -0.1974
     14  CA       -28.1940   11.3490   -4.3810 C.3     9  ASN9        0.1688
     15  C        -27.0840   10.3240   -4.2950 C.2     9  ASN9        0.2292
     16  O        -26.5610   10.0760   -3.2030 O.2     9  ASN9       -0.2864
     17  CB       -29.5570   10.7270   -4.0980 C.3     9  ASN9        0.1181
     18  CG       -30.5110   11.7320   -3.5250 C.2     9  ASN9        0.2629
     19  OD1      -30.3730   12.1480   -2.3580 O.2     9  ASN9       -0.2716
     20  ND2      -31.4620   12.1800   -4.3480 N.am    9  ASN9       -0.0877
     21  N        -29.6940   18.2330   -5.4000 N.3    62  VAL62      -0.1245
     22  CA       -30.8410   17.6710   -4.6640 C.3    62  VAL62       0.1561
     23  C        -30.4100   17.0420   -3.3480 C.2    62  VAL62       0.2260
     24  O        -31.1320   16.2190   -2.7830 O.2    62  VAL62      -0.2867
     25  CB       -31.6560   16.6670   -5.5130 C.3    62  VAL62       0.0252
     26  CG1      -32.1990   17.3620   -6.7460 C.3    62  VAL62       0.0019
     27  CG2      -30.8210   15.4260   -5.9020 C.3    62  VAL62       0.0019
     28  N        -40.1250   23.4550   -4.1480 N.3   101  GLU101     -0.1231
     29  CA       -39.9520   22.0410   -3.7740 C.3   101  GLU101      0.1699
     30  C        -39.5800   21.1440   -4.9590 C.2   101  GLU101      0.2592
     31  O        -39.2160   19.9730   -4.7680 O.2   101  GLU101     -0.2718
     32  CB       -41.2100   21.5110   -3.0620 C.3   101  GLU101      0.0402
     33  CG       -41.4390   22.1420   -1.6810 C.3   101  GLU101      0.1161
     34  CD       -42.6140   21.5540   -0.9250 C.2   101  GLU101      0.3649
     35  OE1      -43.3220   20.6750   -1.4720 O.co2 101  GLU101     -0.2457
     36  OE2      -42.8340   21.9760    0.2360 O.co2 101  GLU101     -0.2457
     37  N        -39.6700   21.6750   -6.1820 N.am  102  VAL102     -0.1966
     38  CA       -39.2410   20.9200   -7.3570 C.3   102  VAL102      0.1727
     39  C        -37.7230   20.7160   -7.3130 C.2   102  VAL102      0.2616
     40  O        -36.9640   21.6610   -7.0950 O.2   102  VAL102     -0.2715
     41  CB       -39.6280   21.6010   -8.6970 C.3   102  VAL102      0.0290
     42  CG1      -39.2000   20.7360   -9.8850 C.3   102  VAL102      0.0023
     43  CG2      -41.1300   21.8560   -8.7690 C.3   102  VAL102      0.0023
     44  N        -37.2810   19.4750   -7.5300 N.am  103  GLY103     -0.1955
     45  CA       -35.8450   19.1880   -7.4270 C.3   103  GLY103      0.1869
     46  C        -35.0940   19.9870   -8.4760 C.2   103  GLY103      0.2309
     47  O        -35.5940   20.1360   -9.6010 O.2   103  GLY103     -0.2863
     48  N        -32.5020   19.3080  -10.2280 N.3   105  ASP105     -0.1225
     49  CA       -32.2270   18.5300  -11.4450 C.3   105  ASP105      0.1805
     50  C        -33.3990   18.5990  -12.4370 C.2   105  ASP105      0.2597
     51  O        -33.1980   18.7570  -13.6580 O.2   105  ASP105     -0.2718
     52  CB       -31.8030   17.0820  -11.1200 C.3   105  ASP105      0.1424
     53  CG       -32.8200   16.3160  -10.2630 C.2   105  ASP105      0.3668
     54  OD1      -33.7590   16.8950   -9.6730 O.co2 105  ASP105     -0.2456
     55  OD2      -32.6540   15.0720  -10.1920 O.co2 105  ASP105     -0.2456
     56  N        -34.6130   18.4950  -11.9090 N.am  106  ARG106     -0.1979
     57  CA       -35.8380   18.5440  -12.7140 C.3   106  ARG106      0.1597
     58  C        -36.0190   19.9350  -13.3110 C.2   106  ARG106      0.2287
     59  O        -36.3860   20.0730  -14.4910 O.2   106  ARG106     -0.2864
     60  CB       -37.0330   18.2060  -11.8300 C.3   106  ARG106      0.0334
     61  CG       -36.9670   16.7770  -11.2490 C.3   106  ARG106      0.0492
     62  CD       -38.1660   16.5160  -10.3880 C.3   106  ARG106      0.2205
     63  NE       -39.3240   16.1420  -11.2010 N.pl3 106  ARG106     -0.0865
     64  CZ       -40.5060   15.8180  -10.6860 C.cat 106  ARG106      0.5346
     65  NH1      -40.6930   15.8500   -9.3640 N.pl3 106  ARG106      0.1354
     66  NH2      -41.5030   15.4660  -11.4880 N.pl3 106  ARG106      0.1354
     67  N        -32.4930    8.1140  -13.0550 N.3   127  GLY127     -0.1210
     68  CA       -31.3600    8.2240  -12.1420 C.3   127  GLY127      0.1956
     69  C        -31.6790    7.4910  -10.8490 C.2   127  GLY127      0.2613
     70  O        -32.3080    6.4360  -10.8700 O.2   127  GLY127     -0.2717
     71  N        -31.2780    8.0600   -9.7190 N.am  128  THR128     -0.1938
     72  CA       -31.5210    7.4010   -8.4300 C.3   128  THR128      0.2028
     73  C        -33.0240    7.1060   -8.3090 C.2   128  THR128      0.2642
     74  O        -33.4310    5.9770   -7.9780 O.2   128  THR128     -0.2714
     75  CB       -31.0430    8.2690   -7.2630 C.3   128  THR128      0.1808
     76  OG1      -29.6400    8.5240   -7.4150 O.3   128  THR128     -0.2208
     77  CG2      -31.2600    7.5430   -5.9580 C.3   128  THR128      0.0379
     78  N        -33.8290    8.1440   -8.5470 N.am  129  ALA129     -0.1977
     79  CA       -35.2530    7.9990   -8.8530 C.3   129  ALA129      0.1597
     80  C        -35.4320    8.2070  -10.3480 C.2   129  ALA129      0.2287
     81  O        -34.5530    8.7750  -11.0150 O.2   129  ALA129     -0.2864
     82  CB       -36.1030    9.0330   -8.0900 C.3   129  ALA129      0.0319
     83  N        -37.7990   10.2340  -12.9340 N.3   131  THR131     -0.1218
     84  CA       -38.7810   11.3080  -12.9170 C.3   131  THR131      0.1862
     85  C        -39.4280   11.4620  -14.2710 C.2   131  THR131      0.2287
     86  O        -38.8100   11.1870  -15.3040 O.2   131  THR131     -0.2866
     87  CB       -38.1680   12.6580  -12.4740 C.3   131  THR131      0.1770
     88  OG1      -37.0330   12.9710  -13.2890 O.3   131  THR131     -0.2211
     89  CG2      -37.7170   12.5750  -11.0090 C.3   131  THR131      0.0375
     90  N        -42.7920   10.6160   -9.8930 N.3   145  ILE145     -0.1245
     91  CA       -41.5310   10.1400   -9.3300 C.3   145  ILE145      0.1561
     92  C        -41.6930    8.6360   -9.0600 C.2   145  ILE145      0.2260
     93  O        -42.6680    8.2080   -8.4310 O.2   145  ILE145     -0.2867
     94  CB       -41.1650   10.8600   -8.0140 C.3   145  ILE145      0.0252
     95  CG1      -40.9150   12.3530   -8.2380 C.3   145  ILE145      0.0019
     96  CG2      -39.9300   10.2140   -7.3520 C.3   145  ILE145      0.0019
     97  CD1      -40.7660   13.1540   -6.9160 C.3   145  ILE145      0.0001
@<TRIPOS>BOND
     1    86    85    2
     2    59    58    2
     3    85    84    1
     4    51    50    2
     5    58    57    1
     6    88    87    1
     7    67    68    1
     8    83    84    1
     9    84    87    1
    10    57    56    1
    11    57    60    1
    12     8     6   ar
    13    87    89    1
    14    50    56   am
    15    50    49    1
    16    68    69    1
    17     5     6    1
    18     5     2    1
    19     6     7   ar
    20    60    61    1
    21    66    64    1
    22    49    52    1
    23    49    48    1
    24    61    62    1
    25    63    64    2
    26    63    62    1
    27    52    53    1
    28     1     2    1
    29    81    80    2
    30    70    69    2
    31    69    71   am
    32     2     3    1
    33    64    65    1
    34    80    79    1
    35    53    55   ar
    36    53    54   ar
    37    90    91    1
    38    42    41    1
    39     4     3    2
    40    71    72    1
    41    47    46    2
    42    91    92    1
    43    91    94    1
    44    92    93    2
    45    79    78    1
    46    79    82    1
    47    43    41    1
    48    41    38    1
    49    78    73   am
    50    46    45    1
    51    72    73    1
    52    72    75    1
    53    73    74    2
    54    95    94    1
    55    95    97    1
    56    94    96    1
    57    44    45    1
    58    44    39   am
    59    76    75    1
    60    38    39    1
    61    38    37    1
    62     9    10    1
    63    39    40    2
    64    75    77    1
    65    10    11    1
    66    26    25    1
    67    37    30   am
    68    11    13   am
    69    11    12    2
    70    27    25    1
    71    13    14    1
    72    25    22    1
    73    21    22    1
    74    30    31    2
    75    30    29    1
    76    22    23    1
    77    14    15    1
    78    14    17    1
    79    20    18   am
    80    15    16    2
    81    28    29    1
    82    17    18    1
    83    29    32    1
    84    18    19    2
    85    23    24    2
    86    32    33    1
    87    33    34    1
    88    35    34   ar
    89    34    36   ar
