@<TRIPOS>MOLECULE
tmp/3bf8A00.pdb
 116 110 0 0 0
SMALL
GASTEIGER

@<TRIPOS>ATOM
      1  N         -0.4360   42.0320   44.4210 N.3    25  LEU25      -0.1245
      2  CA         0.8250   41.6350   45.0390 C.3    25  LEU25       0.1561
      3  C          1.9660   42.6210   44.8080 C.2    25  LEU25       0.2260
      4  O          2.2040   43.0700   43.6860 O.2    25  LEU25      -0.2867
      5  CB         1.2310   40.2410   44.5470 C.3    25  LEU25       0.0270
      6  CG         2.4960   39.6490   45.1760 C.3    25  LEU25       0.0019
      7  CD1        2.2830   39.4600   46.6680 C.3    25  LEU25       0.0001
      8  CD2        2.8270   38.3130   44.5110 C.3    25  LEU25       0.0001
      9  N         -5.6870   41.9470   40.3860 N.3    89  SER89      -0.1202
     10  CA        -4.9750   40.7100   40.6800 C.3    89  SER89       0.2020
     11  C         -5.2560   40.1810   42.0960 C.2    89  SER89       0.2618
     12  O         -6.3980   39.8420   42.4120 O.2    89  SER89      -0.2717
     13  CB        -3.4750   40.9410   40.4670 C.3    89  SER89       0.2103
     14  OG        -2.8170   39.7390   40.1130 O.3    89  SER89      -0.2182
     15  N         -4.2280   40.1030   42.9430 N.am   90  MET90      -0.1979
     16  CA        -4.4190   39.6130   44.3120 C.3    90  MET90       0.1605
     17  C         -5.5690   40.3570   44.9940 C.2    90  MET90       0.2287
     18  O         -6.3590   39.7570   45.7220 O.2    90  MET90      -0.2864
     19  CB        -3.1300   39.7830   45.1310 C.3    90  MET90       0.0413
     20  CG        -3.2690   39.4060   46.6030 C.3    90  MET90       0.0598
     21  SD        -1.8210   39.8980   47.5770 S.3    90  MET90      -0.1393
     22  CE        -2.0670   41.6660   47.7010 C.3    90  MET90       0.0692
     23  N         -8.7490   39.0660   43.8200 N.3    93  LYS93      -0.1245
     24  CA        -9.0730   37.7920   44.4510 C.3    93  LYS93       0.1561
     25  C         -9.6450   38.0190   45.8520 C.2    93  LYS93       0.2260
     26  O        -10.5530   37.3070   46.2810 O.2    93  LYS93      -0.2867
     27  CB        -7.8410   36.8860   44.5120 C.3    93  LYS93       0.0271
     28  CG        -7.6530   36.0470   43.2490 C.3    93  LYS93       0.0035
     29  CD        -6.4810   35.0890   43.3760 C.3    93  LYS93       0.0206
     30  CE        -6.4140   34.1430   42.1910 C.3    93  LYS93       0.1093
     31  NZ        -5.2120   33.2600   42.2920 N.3    93  LYS93      -0.1314
     32  N         -7.5900   39.2230   36.4240 N.3   114  ILE114     -0.1245
     33  CA        -7.4930   38.1560   37.4030 C.3   114  ILE114      0.1561
     34  C         -8.6930   37.2230   37.2650 C.2   114  ILE114      0.2260
     35  O         -9.7820   37.6450   36.8550 O.2   114  ILE114     -0.2867
     36  CB        -7.4470   38.7470   38.8430 C.3   114  ILE114      0.0252
     37  CG1       -7.1970   37.6350   39.8670 C.3   114  ILE114      0.0019
     38  CG2       -8.7460   39.4890   39.1550 C.3   114  ILE114      0.0019
     39  CD1       -5.8170   37.0190   39.7650 C.3   114  ILE114      0.0001
     40  N         -3.5040   29.3060   39.8540 N.3   119  TYR119     -0.1241
     41  CA        -2.6900   29.2580   38.6430 C.3   119  TYR119      0.1605
     42  C         -1.6370   28.1480   38.6170 C.2   119  TYR119      0.2264
     43  O         -1.0730   27.8490   37.5650 O.2   119  TYR119     -0.2867
     44  CB        -2.0480   30.6280   38.4120 C.3   119  TYR119      0.0534
     45  CG        -3.0550   31.7010   38.0460 C.ar  119  TYR119     -0.0201
     46  CD1       -3.5840   31.7770   36.7530 C.ar  119  TYR119     -0.0009
     47  CD2       -3.4800   32.6390   38.9880 C.ar  119  TYR119     -0.0009
     48  CE1       -4.5100   32.7680   36.4090 C.ar  119  TYR119      0.0417
     49  CE2       -4.4030   33.6290   38.6560 C.ar  119  TYR119      0.0417
     50  CZ        -4.9110   33.6880   37.3650 C.ar  119  TYR119      0.1957
     51  OH        -5.8080   34.6810   37.0320 O.3   119  TYR119     -0.2866
     52  N          1.4890   27.8430   39.3560 N.3   121  VAL121     -0.1245
     53  CA         2.7980   28.1510   38.7750 C.3   121  VAL121      0.1561
     54  C          3.5190   29.1820   39.6290 C.2   121  VAL121      0.2260
     55  O          2.9060   29.8440   40.4600 O.2   121  VAL121     -0.2867
     56  CB         2.6830   28.7540   37.3470 C.3   121  VAL121      0.0252
     57  CG1        2.0440   27.7560   36.3950 C.3   121  VAL121      0.0019
     58  CG2        1.8820   30.0550   37.3910 C.3   121  VAL121      0.0019
     59  N          5.4670   32.5530   39.2530 N.3   123  ARG123     -0.1231
     60  CA         5.6840   33.6060   38.2640 C.3   123  ARG123      0.1694
     61  C          6.4290   34.8080   38.8090 C.2   123  ARG123      0.2592
     62  O          6.5300   35.8200   38.1250 O.2   123  ARG123     -0.2718
     63  CB         4.3440   34.1000   37.7060 C.3   123  ARG123      0.0321
     64  CG         3.7040   33.1820   36.6960 C.3   123  ARG123      0.0489
     65  CD         2.5790   33.8780   35.9650 C.3   123  ARG123      0.2205
     66  NE         1.3690   34.0210   36.7690 N.pl3 123  ARG123     -0.0865
     67  CZ         0.1530   33.7600   36.3040 C.cat 123  ARG123      0.5346
     68  NH1        0.0020   33.3480   35.0550 N.pl3 123  ARG123      0.1354
     69  NH2       -0.9110   33.9060   37.0780 N.pl3 123  ARG123      0.1354
     70  N          6.9490   34.7050   40.0270 N.am  124  HIS124     -0.1976
     71  CA         7.6460   35.8370   40.6270 C.3   124  HIS124      0.1656
     72  C          9.0090   35.5210   41.2100 C.2   124  HIS124      0.2291
     73  O          9.5280   36.3020   42.0030 O.2   124  HIS124     -0.2864
     74  CB         6.7860   36.4540   41.7340 C.3   124  HIS124      0.0771
     75  CG         5.4730   36.9880   41.2570 C.ar  124  HIS124      0.0820
     76  ND1        4.3930   36.1760   40.9860 N.ar  124  HIS124     -0.2267
     77  CD2        5.0800   38.2510   40.9690 C.ar  124  HIS124      0.1154
     78  CE1        3.3890   36.9180   40.5510 C.ar  124  HIS124      0.1986
     79  NE2        3.7800   38.1790   40.5300 N.ar  124  HIS124     -0.2212
     80  N         -1.3040   32.8030   47.6580 N.3   185  ILE185     -0.1231
     81  CA        -1.6100   34.0310   46.9320 C.3   185  ILE185      0.1692
     82  C         -1.9130   33.7470   45.4570 C.2   185  ILE185      0.2591
     83  O         -2.8910   34.2620   44.9050 O.2   185  ILE185     -0.2718
     84  CB        -0.4410   35.0290   47.0610 C.3   185  ILE185      0.0266
     85  CG1       -0.2750   35.4180   48.5390 C.3   185  ILE185      0.0019
     86  CG2       -0.7050   36.2650   46.1990 C.3   185  ILE185      0.0020
     87  CD1        1.0030   36.1750   48.8440 C.3   185  ILE185      0.0001
     88  N         -1.0860   32.9220   44.8200 N.am  186  VAL186     -0.1980
     89  CA        -1.3040   32.5640   43.4180 C.3   186  VAL186      0.1595
     90  C         -2.3880   31.4940   43.3810 C.2   186  VAL186      0.2287
     91  O         -2.9720   31.2150   42.3310 O.2   186  VAL186     -0.2864
     92  CB        -0.0200   31.9950   42.7580 C.3   186  VAL186      0.0276
     93  CG1        1.0900   33.0100   42.8400 C.3   186  VAL186      0.0022
     94  CG2        0.3970   30.7160   43.4380 C.3   186  VAL186      0.0022
     95  N         -3.6870   35.8940   32.4700 N.3   208  TYR208     -0.1241
     96  CA        -4.4580   35.7660   33.7020 C.3   208  TYR208      0.1605
     97  C         -5.9400   35.4180   33.5420 C.2   208  TYR208      0.2264
     98  O         -6.5100   34.7520   34.4070 O.2   208  TYR208     -0.2867
     99  CB        -4.3140   37.0410   34.5440 C.3   208  TYR208      0.0534
    100  CG        -3.0330   37.1150   35.3530 C.ar  208  TYR208     -0.0201
    101  CD1       -3.0500   36.9310   36.7390 C.ar  208  TYR208     -0.0009
    102  CD2       -1.8060   37.3820   34.7380 C.ar  208  TYR208     -0.0009
    103  CE1       -1.8810   37.0180   37.4950 C.ar  208  TYR208      0.0417
    104  CE2       -0.6280   37.4700   35.4870 C.ar  208  TYR208      0.0417
    105  CZ        -0.6750   37.2880   36.8650 C.ar  208  TYR208      0.1957
    106  OH         0.4760   37.3840   37.6180 O.3   208  TYR208     -0.2866
    107  N         -0.5720   42.7720   32.3050 N.3   234  HIS234     -0.1241
    108  CA        -1.2100   42.5100   33.5930 C.3   234  HIS234      0.1621
    109  C         -1.6470   43.7510   34.3810 C.2   234  HIS234      0.2264
    110  O         -2.7040   43.7380   35.0120 O.2   234  HIS234     -0.2867
    111  CB        -0.2840   41.6410   34.4450 C.3   234  HIS234      0.0745
    112  CG        -0.8580   41.2540   35.7710 C.ar  234  HIS234      0.0817
    113  ND1       -2.0940   40.6540   35.9070 N.ar  234  HIS234     -0.2268
    114  CD2       -0.3510   41.3640   37.0220 C.ar  234  HIS234      0.1154
    115  CE1       -2.3220   40.4120   37.1860 C.ar  234  HIS234      0.1986
    116  NE2       -1.2810   40.8330   37.8840 N.ar  234  HIS234     -0.2212
@<TRIPOS>BOND
     1   107   108    1
     2    95    96    1
     3    97    96    1
     4    97    98    2
     5   108   109    1
     6   108   111    1
     7    96    99    1
     8   109   110    2
     9   111   112    1
    10    99   100    1
    11   102   100   ar
    12   102   104   ar
    13    68    67    1
    14   100   101   ar
    15   104   105   ar
    16   112   113   ar
    17   112   114   ar
    18   113   115   ar
    19    65    64    1
    20    65    66    1
    21    67    66    2
    22    67    69    1
    23    57    56    1
    24    48    46   ar
    25    48    50   ar
    26    32    33    1
    27    64    63    1
    28   101   103   ar
    29    46    45   ar
    30    35    34    2
    31   105   103   ar
    32   105   106    1
    33   114   116   ar
    34    51    50    1
    35   115   116   ar
    36    34    33    1
    37    56    58    1
    38    56    53    1
    39    50    49   ar
    40    33    36    1
    41    43    42    2
    42    63    60    1
    43    45    44    1
    44    45    47   ar
    45    62    61    2
    46    60    61    1
    47    60    59    1
    48    44    41    1
    49    42    41    1
    50    41    40    1
    51    49    47   ar
    52    53    52    1
    53    53    54    1
    54    61    70   am
    55    36    38    1
    56    36    37    1
    57    54    55    2
    58    39    37    1
    59    70    71    1
    60    14    13    1
    61     9    10    1
    62    13    10    1
    63    79    78   ar
    64    79    77   ar
    65    78    76   ar
    66    71    72    1
    67    71    74    1
    68    10    11    1
    69    77    75   ar
    70    76    75   ar
    71    72    73    2
    72    75    74    1
    73    11    12    2
    74    11    15   am
    75    30    31    1
    76    30    29    1
    77    91    90    2
    78    92    93    1
    79    92    89    1
    80    92    94    1
    81    15    16    1
    82    28    29    1
    83    28    27    1
    84    90    89    1
    85    89    88    1
    86     4     3    2
    87    23    24    1
    88    16    17    1
    89    16    19    1
    90     1     2    1
    91    24    27    1
    92    24    25    1
    93     8     6    1
    94     5     2    1
    95     5     6    1
    96     3     2    1
    97    88    82   am
    98    83    82    2
    99    17    18    2
   100    19    20    1
   101     6     7    1
   102    82    81    1
   103    25    26    2
   104    86    84    1
   105    20    21    1
   106    81    84    1
   107    81    80    1
   108    84    85    1
   109    21    22    1
   110    85    87    1
