@<TRIPOS>MOLECULE
tmp/3bfaA00.pdb
 111 106 0 0 0
SMALL
GASTEIGER

@<TRIPOS>ATOM
      1  N         24.3180   14.5860   -7.6840 N.3     7  VAL7       -0.1245
      2  CA        23.1550   13.9380   -7.0780 C.3     7  VAL7        0.1561
      3  C         21.9990   13.7450   -8.0390 C.2     7  VAL7        0.2260
      4  O         21.2020   12.8340   -7.8660 O.2     7  VAL7       -0.2867
      5  CB        22.6300   14.7510   -5.8830 C.3     7  VAL7        0.0252
      6  CG1       21.4290   14.0410   -5.2360 C.3     7  VAL7        0.0019
      7  CG2       23.7590   14.9820   -4.8650 C.3     7  VAL7        0.0019
      8  N         22.8410   10.6310  -10.1070 N.3    10  LEU10      -0.1231
      9  CA        22.6810    9.4590   -9.2570 C.3    10  LEU10       0.1693
     10  C         21.2000    9.0490   -9.1260 C.2    10  LEU10       0.2591
     11  O         20.8710    7.8680   -9.2000 O.2    10  LEU10      -0.2718
     12  CB        23.3280    9.7000   -7.8800 C.3    10  LEU10       0.0284
     13  CG        23.2000    8.5700   -6.8430 C.3    10  LEU10       0.0019
     14  CD1       23.7150    7.2430   -7.3910 C.3    10  LEU10       0.0001
     15  CD2       23.9130    8.9240   -5.5490 C.3    10  LEU10       0.0001
     16  N         20.3040   10.0200   -8.9650 N.am   11  VAL11      -0.1980
     17  CA        18.8680    9.7140   -8.8030 C.3    11  VAL11       0.1595
     18  C         18.0880    9.5030  -10.1030 C.2    11  VAL11       0.2287
     19  O         16.8920    9.2180  -10.0470 O.2    11  VAL11      -0.2864
     20  CB        18.1240   10.8300   -7.9890 C.3    11  VAL11       0.0276
     21  CG1       18.7810   11.0210   -6.6240 C.3    11  VAL11       0.0022
     22  CG2       18.0780   12.1350   -8.7750 C.3    11  VAL11       0.0022
     23  N          5.2930    9.6960   -5.3000 N.3    46  TYR46      -0.1227
     24  CA         6.6380    9.9540   -5.8750 C.3    46  TYR46       0.1736
     25  C          7.6910   10.1780   -4.7740 C.2    46  TYR46       0.2595
     26  O          8.7660    9.6050   -4.8160 O.2    46  TYR46      -0.2718
     27  CB         6.6460   11.1530   -6.8020 C.3    46  TYR46       0.0548
     28  CG         8.0380   11.6060   -7.2000 C.ar   46  TYR46      -0.0200
     29  CD1        8.7350   10.9820   -8.2400 C.ar   46  TYR46      -0.0009
     30  CD2        8.6520   12.6620   -6.5540 C.ar   46  TYR46      -0.0009
     31  CE1        9.9950   11.3750   -8.5990 C.ar   46  TYR46       0.0417
     32  CE2        9.9030   13.0810   -6.9350 C.ar   46  TYR46       0.0417
     33  CZ        10.5770   12.4130   -7.9460 C.ar   46  TYR46       0.1957
     34  OH        11.8190   12.8040   -8.3020 O.3    46  TYR46      -0.2866
     35  N          7.3890   11.0460   -3.8170 N.am   47  MET47      -0.1979
     36  CA         8.3620   11.3770   -2.7850 C.3    47  MET47       0.1605
     37  C          8.7150   10.1430   -1.9580 C.2    47  MET47       0.2287
     38  O          9.9080    9.9120   -1.6470 O.2    47  MET47      -0.2864
     39  CB         7.8060   12.4690   -1.8830 C.3    47  MET47       0.0413
     40  CG         7.7770   13.8570   -2.5260 C.3    47  MET47       0.0598
     41  SD         7.2810   15.1540   -1.3620 S.3    47  MET47      -0.1393
     42  CE         5.5500   14.7990   -1.1020 C.3    47  MET47       0.0692
     43  N         10.9550    7.7710   -4.0800 N.3    50  LEU50      -0.1231
     44  CA        12.3710    8.1700   -4.2630 C.3    50  LEU50       0.1693
     45  C         13.1690    7.9850   -2.9810 C.2    50  LEU50       0.2591
     46  O         14.3160    7.5520   -3.0010 O.2    50  LEU50      -0.2718
     47  CB        12.4870    9.6460   -4.7080 C.3    50  LEU50       0.0284
     48  CG        13.7860   10.0500   -5.4340 C.3    50  LEU50       0.0019
     49  CD1       14.1380    9.1000   -6.6070 C.3    50  LEU50       0.0001
     50  CD2       13.6860   11.4990   -5.9120 C.3    50  LEU50       0.0001
     51  N         12.5440    8.3660   -1.8730 N.am   51  LEU51      -0.1980
     52  CA        13.0890    8.1390   -0.5670 C.3    51  LEU51       0.1596
     53  C         13.3880    6.6470   -0.3810 C.2    51  LEU51       0.2287
     54  O         14.4530    6.2920    0.1090 O.2    51  LEU51      -0.2864
     55  CB        12.1200    8.6410    0.5030 C.3    51  LEU51       0.0297
     56  CG        12.0910   10.1340    0.8140 C.3    51  LEU51       0.0022
     57  CD1       10.9930   10.4540    1.8060 C.3    51  LEU51       0.0001
     58  CD2       13.4280   10.6050    1.3390 C.3    51  LEU51       0.0001
     59  N         16.4100    5.0940   -2.0820 N.3    54  PHE54      -0.1241
     60  CA        17.6750    5.3400   -1.4140 C.3    54  PHE54       0.1605
     61  C         17.7510    4.9090    0.0320 C.2    54  PHE54       0.2264
     62  O         18.6080    5.3660    0.7880 O.2    54  PHE54      -0.2867
     63  CB        18.0630    6.7780   -1.6640 C.3    54  PHE54       0.0534
     64  CG        18.4520    6.9720   -3.0760 C.ar   54  PHE54      -0.0203
     65  CD1       19.7070    6.5650   -3.4990 C.ar   54  PHE54      -0.0042
     66  CD2       17.5180    7.3900   -4.0210 C.ar   54  PHE54      -0.0042
     67  CE1       20.0660    6.6550   -4.8490 C.ar   54  PHE54      -0.0003
     68  CE2       17.8620    7.4710   -5.3690 C.ar   54  PHE54      -0.0003
     69  CZ        19.1330    7.1180   -5.7820 C.ar   54  PHE54      -0.0000
     70  N         15.9600    5.4100    2.5730 N.3    56  LEU56      -0.1245
     71  CA        15.7510    6.4760    3.5400 C.3    56  LEU56       0.1561
     72  C         14.4830    6.2160    4.3590 C.2    56  LEU56       0.2260
     73  O         14.2920    6.7660    5.4310 O.2    56  LEU56      -0.2867
     74  CB        15.6420    7.8210    2.8210 C.3    56  LEU56       0.0270
     75  CG        16.9660    8.4220    2.3560 C.3    56  LEU56       0.0019
     76  CD1       16.7380    9.4880    1.2690 C.3    56  LEU56       0.0001
     77  CD2       17.7330    8.9990    3.5570 C.3    56  LEU56       0.0001
     78  N         23.6360   11.1850    4.3800 N.3    71  LEU71      -0.1245
     79  CA        23.4630   11.7490    3.0430 C.3    71  LEU71       0.1561
     80  C         23.6350   13.2680    2.9740 C.2    71  LEU71       0.2260
     81  O         24.0230   13.7890    1.9320 O.2    71  LEU71      -0.2867
     82  CB        22.0920   11.3640    2.4680 C.3    71  LEU71       0.0270
     83  CG        22.1260   10.3100    1.3620 C.3    71  LEU71       0.0019
     84  CD1       23.1580    9.1830    1.5980 C.3    71  LEU71       0.0001
     85  CD2       20.7230    9.7610    1.1450 C.3    71  LEU71       0.0001
     86  N         13.4710   21.1250   -0.0790 N.3   115  PHE115     -0.1227
     87  CA        13.7110   20.7610   -1.4620 C.3   115  PHE115      0.1736
     88  C         13.3750   19.2990   -1.6780 C.2   115  PHE115      0.2595
     89  O         13.5510   18.4870   -0.7760 O.2   115  PHE115     -0.2718
     90  CB        15.1830   20.9970   -1.8030 C.3   115  PHE115      0.0547
     91  CG        15.6030   20.4170   -3.1060 C.ar  115  PHE115     -0.0202
     92  CD1       15.2200   21.0140   -4.2990 C.ar  115  PHE115     -0.0042
     93  CD2       16.3940   19.2830   -3.1440 C.ar  115  PHE115     -0.0042
     94  CE1       15.6190   20.4850   -5.5160 C.ar  115  PHE115     -0.0003
     95  CE2       16.7970   18.7530   -4.3460 C.ar  115  PHE115     -0.0003
     96  CZ        16.4060   19.3490   -5.5410 C.ar  115  PHE115     -0.0000
     97  N         12.8880   18.9900   -2.8760 N.am  116  VAL116     -0.1966
     98  CA        12.6880   17.6270   -3.3540 C.3   116  VAL116      0.1727
     99  C         13.2360   17.4800   -4.7870 C.2   116  VAL116      0.2616
    100  O         13.0030   18.3540   -5.6160 O.2   116  VAL116     -0.2715
    101  CB        11.1800   17.2930   -3.3430 C.3   116  VAL116      0.0290
    102  CG1       10.8560   16.1530   -4.2960 C.3   116  VAL116      0.0023
    103  CG2       10.7140   16.9700   -1.9250 C.3   116  VAL116      0.0023
    104  N         13.9500   16.3880   -5.0820 N.am  117  ILE117     -0.1977
    105  CA        14.4580   16.1350   -6.4540 C.3   117  ILE117      0.1596
    106  C         13.4070   15.4650   -7.3490 C.2   117  ILE117      0.2287
    107  O         13.3290   15.7400   -8.5520 O.2   117  ILE117     -0.2864
    108  CB        15.7090   15.2190   -6.4910 C.3   117  ILE117      0.0276
    109  CG1       16.8970   15.8540   -5.7910 C.3   117  ILE117      0.0022
    110  CG2       16.1190   14.9500   -7.9110 C.3   117  ILE117      0.0022
    111  CD1       18.1890   15.0810   -5.9580 C.3   117  ILE117      0.0001
@<TRIPOS>BOND
     1     8     9    1
     2    18    19    2
     3    18    17    1
     4     9    10    1
     5     9    12    1
     6    11    10    2
     7    10    16   am
     8    16    17    1
     9    17    20    1
    10    22    20    1
    11    31    29   ar
    12    31    33   ar
    13   107   106    2
    14    34    33    1
    15    29    28   ar
    16     3     4    2
    17     3     2    1
    18    20    21    1
    19    33    32   ar
    20   110   108    1
    21    12    13    1
    22     1     2    1
    23    14    13    1
    24   106   105    1
    25    28    27    1
    26    28    30   ar
    27     2     5    1
    28    32    30   ar
    29    13    15    1
    30    27    24    1
    31    49    48    1
    32   108   105    1
    33   108   109    1
    34   105   104    1
    35   111   109    1
    36    50    48    1
    37     5     6    1
    38     5     7    1
    39    24    23    1
    40    24    25    1
    41    69    68   ar
    42    69    67   ar
    43   100    99    2
    44    96    94   ar
    45    96    95   ar
    46    94    92   ar
    47    48    47    1
    48    68    66   ar
    49   104    99   am
    50    67    65   ar
    51    26    25    2
    52    99    98    1
    53    25    35   am
    54    47    44    1
    55    95    93   ar
    56    92    91   ar
    57   102   101    1
    58    44    43    1
    59    44    45    1
    60    66    64   ar
    61    35    36    1
    62    65    64   ar
    63    98   101    1
    64    98    97    1
    65   101   103    1
    66    93    91   ar
    67    91    90    1
    68    64    63    1
    69    46    45    2
    70    45    51   am
    71    97    88   am
    72    36    37    1
    73    36    39    1
    74    40    39    1
    75    40    41    1
    76    59    60    1
    77    37    38    2
    78    51    52    1
    79    90    87    1
    80    88    87    1
    81    88    89    2
    82    63    60    1
    83    87    86    1
    84    60    61    1
    85    41    42    1
    86    52    53    1
    87    52    55    1
    88    53    54    2
    89    61    62    2
    90    55    56    1
    91    56    58    1
    92    56    57    1
    93    85    83    1
    94    76    75    1
    95    83    84    1
    96    83    82    1
    97    81    80    2
    98    75    74    1
    99    75    77    1
   100    82    79    1
   101    70    71    1
   102    74    71    1
   103    80    79    1
   104    79    78    1
   105    71    72    1
   106    72    73    2
