@<TRIPOS>MOLECULE
tmp/3bfcC00.pdb
 147 142 0 0 0
SMALL
GASTEIGER

@<TRIPOS>ATOM
      1  N         29.9860    8.8030   -1.1020 N.3    43  CYS43      -0.1221
      2  CA        29.4720    7.9530   -0.0330 C.3    43  CYS43       0.1808
      3  C         30.3280    8.2810    1.2030 C.2    43  CYS43       0.2601
      4  O         30.6580    9.4390    1.4580 O.2    43  CYS43      -0.2717
      5  CB        29.6050    6.4470   -0.3300 C.3    43  CYS43       0.0970
      6  SG        28.6990    5.6430   -1.7090 S.3    43  CYS43      -0.0800
      7  N         30.7240    7.2490    1.9400 N.am   44  SER44      -0.1952
      8  CA        31.5000    7.4160    3.1660 C.3    44  SER44       0.1924
      9  C         32.9460    7.8690    3.0180 C.2    44  SER44       0.2314
     10  O         33.5700    8.2550    4.0070 O.2    44  SER44      -0.2863
     11  CB        31.4700    6.1150    3.9660 C.3    44  SER44       0.2116
     12  OG        30.1320    5.7490    4.2520 O.3    44  SER44      -0.2180
     13  N         34.4180   11.0250    4.5200 N.3    47  LYS47      -0.1245
     14  CA        34.7590   11.0800    5.9400 C.3    47  LYS47       0.1561
     15  C         36.2450   11.3620    6.1560 C.2    47  LYS47       0.2260
     16  O         36.6420   11.8510    7.2160 O.2    47  LYS47      -0.2867
     17  CB        34.3610    9.7690    6.6320 C.3    47  LYS47       0.0271
     18  CG        32.8550    9.5910    6.7310 C.3    47  LYS47       0.0035
     19  CD        32.4450    8.2190    7.2430 C.3    47  LYS47       0.0206
     20  CE        30.9320    8.0700    7.1580 C.3    47  LYS47       0.1093
     21  NZ        30.4610    6.7280    7.5610 N.3    47  LYS47      -0.1314
     22  N         21.4170    5.2680   11.3210 N.3    78  ASN78      -0.1225
     23  CA        21.2260    3.9070   10.8230 C.3    78  ASN78       0.1785
     24  C         22.4860    3.0480   10.9180 C.2    78  ASN78       0.2597
     25  O         22.4640    1.8700   10.5550 O.2    78  ASN78      -0.2718
     26  CB        20.7590    3.9450    9.3710 C.3    78  ASN78       0.1169
     27  CG        21.7870    4.5610    8.4540 C.2    78  ASN78       0.2627
     28  OD1       22.2580    5.6730    8.6920 O.2    78  ASN78      -0.2716
     29  ND2       22.1460    3.8410    7.4000 N.am   78  ASN78      -0.0877
     30  N         23.5810    3.6350   11.3940 N.am   79  TRP79      -0.1976
     31  CA        24.8390    2.9060   11.5370 C.3    79  TRP79       0.1640
     32  C         25.6730    3.5270   12.6550 C.2    79  TRP79       0.2290
     33  O         26.2090    4.6240   12.5100 O.2    79  TRP79      -0.2864
     34  CB        25.6210    2.9300   10.2210 C.3    79  TRP79       0.0576
     35  CG        26.8850    2.1300   10.2760 C.ar   79  TRP79       0.0006
     36  CD1       28.1540    2.5900   10.0900 C.ar   79  TRP79       0.0946
     37  CD2       27.0030    0.7350   10.5760 C.ar   79  TRP79       0.0152
     38  NE1       29.0590    1.5700   10.2590 N.ar   79  TRP79      -0.2442
     39  CE2       28.3790    0.4190   10.5560 C.ar   79  TRP79       0.0810
     40  CE3       26.0800   -0.2800   10.8590 C.ar   79  TRP79       0.0012
     41  CZ2       28.8560   -0.8690   10.8130 C.ar   79  TRP79       0.0191
     42  CZ3       26.5540   -1.5640   11.1140 C.ar   79  TRP79       0.0001
     43  CH2       27.9310   -1.8450   11.0880 C.ar   79  TRP79       0.0015
     44  N         35.3730    2.5160   11.3440 N.3   103  TYR103     -0.1227
     45  CA        34.1440    1.7320   11.3860 C.3   103  TYR103      0.1736
     46  C         33.0640    2.4220   10.5640 C.2   103  TYR103      0.2596
     47  O         31.9420    1.9290   10.4480 O.2   103  TYR103     -0.2718
     48  CB        33.6640    1.5500   12.8300 C.3   103  TYR103      0.0548
     49  CG        34.5920    0.7080   13.6750 C.ar  103  TYR103     -0.0200
     50  CD1       34.4650   -0.6830   13.7080 C.ar  103  TYR103     -0.0009
     51  CD2       35.6230    1.2930   14.4090 C.ar  103  TYR103     -0.0009
     52  CE1       35.3450   -1.4690   14.4470 C.ar  103  TYR103      0.0417
     53  CE2       36.5080    0.5180   15.1530 C.ar  103  TYR103      0.0417
     54  CZ        36.3630   -0.8620   15.1690 C.ar  103  TYR103      0.1957
     55  OH        37.2330   -1.6350   15.9070 O.3   103  TYR103     -0.2866
     56  N         33.4200    3.5690    9.9940 N.am  104  SER104     -0.1952
     57  CA        32.5090    4.3580    9.1720 C.3   104  SER104      0.1924
     58  C         31.2450    4.7190    9.9560 C.2   104  SER104      0.2314
     59  O         30.1460    4.7630    9.4060 O.2   104  SER104     -0.2863
     60  CB        32.1540    3.5820    7.8970 C.3   104  SER104      0.2116
     61  OG        31.7640    4.4580    6.8540 O.3   104  SER104     -0.2180
     62  N         28.3880    6.4570   11.1470 N.3   106  ASN106     -0.1240
     63  CA        27.5930    7.5720   10.6340 C.3   106  ASN106      0.1653
     64  C         27.2610    8.6530   11.6530 C.2   106  ASN106      0.2266
     65  O         27.1560    9.8300   11.3050 O.2   106  ASN106     -0.2867
     66  CB        26.2940    7.0490   10.0120 C.3   106  ASN106      0.1155
     67  CG        26.4780    6.5970    8.5760 C.2   106  ASN106      0.2627
     68  OD1       27.6020    6.3710    8.1290 O.2   106  ASN106     -0.2716
     69  ND2       25.3720    6.4520    7.8480 N.am  106  ASN106     -0.0877
     70  N         24.8730   12.7300    7.2770 N.3   140  GLU140     -0.1245
     71  CA        24.3780   11.3610    7.3100 C.3   140  GLU140      0.1567
     72  C         22.9070   11.3600    7.7070 C.2   140  GLU140      0.2260
     73  O         22.5100   12.0580    8.6430 O.2   140  GLU140     -0.2867
     74  CB        25.1670   10.5290    8.3200 C.3   140  GLU140      0.0388
     75  CG        26.6450   10.3860    8.0160 C.3   140  GLU140      0.1160
     76  CD        26.9120    9.6590    6.7130 C.2   140  GLU140      0.3649
     77  OE1       26.0210    8.9150    6.2510 O.co2 140  GLU140     -0.2457
     78  OE2       28.0230    9.8180    6.1600 O.co2 140  GLU140     -0.2457
     79  N         24.0860    9.9010    1.0470 N.3   144  ASN144     -0.1240
     80  CA        24.2990    8.6110    0.3870 C.3   144  ASN144      0.1653
     81  C         23.3180    8.2670   -0.7460 C.2   144  ASN144      0.2266
     82  O         23.3420    7.1420   -1.2480 O.2   144  ASN144     -0.2867
     83  CB        24.2470    7.4890    1.4300 C.3   144  ASN144      0.1155
     84  CG        25.2540    7.6760    2.5430 C.2   144  ASN144      0.2627
     85  OD1       24.9360    7.4860    3.7160 O.2   144  ASN144     -0.2716
     86  ND2       26.4780    8.0390    2.1840 N.am  144  ASN144     -0.0877
     87  N         37.0980   -1.9120    7.6670 N.3   190  THR190     -0.1218
     88  CA        36.0740   -2.2460    6.6800 C.3   190  THR190      0.1862
     89  C         36.5440   -2.4170    5.2400 C.2   190  THR190      0.2287
     90  O         35.7190   -2.5850    4.3430 O.2   190  THR190     -0.2866
     91  CB        34.9650   -1.1820    6.6770 C.3   190  THR190      0.1770
     92  OG1       35.4820    0.0420    6.1400 O.3   190  THR190     -0.2211
     93  CG2       34.4700   -0.9240    8.0960 C.3   190  THR190      0.0375
     94  N         39.8660    4.0550    3.1910 N.3   208  LYS208     -0.1231
     95  CA        38.5280    4.3450    3.6700 C.3   208  LYS208      0.1693
     96  C         37.5820    3.8910    2.5690 C.2   208  LYS208      0.2593
     97  O         37.6880    4.3250    1.4210 O.2   208  LYS208     -0.2718
     98  CB        38.3450    5.8400    3.9310 C.3   208  LYS208      0.0285
     99  CG        36.9770    6.1870    4.5090 C.3   208  LYS208      0.0035
    100  CD        36.7920    5.5760    5.8950 C.3   208  LYS208      0.0206
    101  CE        35.3580    5.7020    6.3890 C.3   208  LYS208      0.1093
    102  NZ        34.4470    4.7860    5.6490 N.3   208  LYS208     -0.1314
    103  N         36.6660    3.0040    2.9270 N.am  209  THR209     -0.1939
    104  CA        35.7040    2.4670    1.9790 C.3   209  THR209      0.2028
    105  C         34.4210    3.2740    1.9570 C.2   209  THR209      0.2643
    106  O         34.2460    4.2200    2.7340 O.2   209  THR209     -0.2714
    107  CB        35.3390    1.0270    2.3360 C.3   209  THR209      0.1808
    108  OG1       35.0510    0.9570    3.7380 O.3   209  THR209     -0.2208
    109  CG2       36.4810    0.0810    2.0080 C.3   209  THR209      0.0379
    110  N         33.5280    2.8820    1.0550 N.am  210  GLY210     -0.1939
    111  CA        32.2440    3.5370    0.9330 C.3   210  GLY210      0.2014
    112  C         31.2550    2.6070    0.2510 C.2   210  GLY210      0.2639
    113  O         31.6020    1.9050   -0.7000 O.2   210  GLY210     -0.2714
    114  N         30.0250    2.5820    0.7450 N.am  211  ALA211     -0.1963
    115  CA        29.0000    1.7450    0.1450 C.3   211  ALA211      0.1728
    116  C         27.6650    2.4320    0.3350 C.2   211  ALA211      0.2616
    117  O         27.1890    2.5680    1.4630 O.2   211  ALA211     -0.2715
    118  CB        28.9790    0.3670    0.8000 C.3   211  ALA211      0.0334
    119  N         27.0640    2.8890   -0.7580 N.am  212  CYS212     -0.1968
    120  CA        25.7690    3.5360   -0.6500 C.3   212  CYS212      0.1712
    121  C         24.8290    3.2080   -1.8180 C.2   212  CYS212      0.2296
    122  O         25.1010    2.2840   -2.5810 O.2   212  CYS212     -0.2864
    123  CB        25.9350    5.0590   -0.4050 C.3   212  CYS212      0.0983
    124  SG        26.7480    6.1960   -1.5920 S.3   212  CYS212     -0.0798
    125  N         26.2860   -4.1980   -3.6280 N.3   246  TRP246     -0.1241
    126  CA        27.6490   -3.6960   -3.7070 C.3   246  TRP246      0.1605
    127  C         28.6130   -4.6770   -4.3610 C.2   246  TRP246      0.2264
    128  O         28.4820   -5.8930   -4.2090 O.2   246  TRP246     -0.2867
    129  CB        28.1310   -3.3070   -2.3100 C.3   246  TRP246      0.0550
    130  CG        27.2700   -2.2380   -1.7100 C.ar  246  TRP246      0.0003
    131  CD1       26.9540   -1.0320   -2.2730 C.ar  246  TRP246      0.0946
    132  CD2       26.5730   -2.2890   -0.4580 C.ar  246  TRP246      0.0152
    133  NE1       26.1030   -0.3350   -1.4550 N.ar  246  TRP246     -0.2442
    134  CE2       25.8530   -1.0790   -0.3330 C.ar  246  TRP246      0.0810
    135  CE3       26.4880   -3.2360    0.5720 C.ar  246  TRP246      0.0012
    136  CZ2       25.0550   -0.7910    0.7790 C.ar  246  TRP246      0.0191
    137  CZ3       25.6940   -2.9510    1.6800 C.ar  246  TRP246      0.0001
    138  CH2       24.9890   -1.7360    1.7730 C.ar  246  TRP246      0.0015
    139  N         32.2670   -4.8860   -4.0800 N.3   248  LYS248     -0.1245
    140  CA        33.5930   -4.6270   -3.5350 C.3   248  LYS248      0.1561
    141  C         34.6440   -5.3840   -4.3270 C.2   248  LYS248      0.2260
    142  O         35.7870   -4.9430   -4.4500 O.2   248  LYS248     -0.2867
    143  CB        33.6400   -5.0280   -2.0640 C.3   248  LYS248      0.0271
    144  CG        32.7260   -4.1780   -1.2050 C.3   248  LYS248      0.0035
    145  CD        32.6920   -4.6150    0.2420 C.3   248  LYS248      0.0206
    146  CE        31.7160   -3.7410    1.0190 C.3   248  LYS248      0.1093
    147  NZ        31.5930   -4.1290    2.4530 N.3   248  LYS248     -0.1314
@<TRIPOS>BOND
     1   142   141    2
     2   127   128    2
     3   127   126    1
     4   141   140    1
     5   139   140    1
     6   126   125    1
     7   126   129    1
     8   140   143    1
     9   122   121    2
    10   129   130    1
    11   131   130   ar
    12   131   133   ar
    13   143   144    1
    14   121   120    1
    15   130   132   ar
    16     6   124    1
    17     6     5    1
    18   124   123    1
    19   133   134   ar
    20    82    81    2
    21   144   145    1
    22     1     2    1
    23   119   120    1
    24   119   116   am
    25    81    80    1
    26   113   112    2
    27   120   123    1
    28   132   134   ar
    29   132   135   ar
    30   134   136   ar
    31     5     2    1
    32     2     3    1
    33   115   116    1
    34   115   114    1
    35   115   118    1
    36   145   146    1
    37   112   114   am
    38   112   111    1
    39   116   117    2
    40    80    79    1
    41    80    83    1
    42   135   137   ar
    43   136   138   ar
    44   111   110    1
    45   146   147    1
    46   110   105   am
    47     3     4    2
    48     3     7   am
    49    97    96    2
    50    83    84    1
    51   137   138   ar
    52     7     8    1
    53   105   104    1
    54   105   106    2
    55   104   107    1
    56   104   103    1
    57   109   107    1
    58    86    84   am
    59   107   108    1
    60    84    85    2
    61    96   103   am
    62    96    95    1
    63     9     8    1
    64     9    10    2
    65     8    11    1
    66    94    95    1
    67    95    98    1
    68    98    99    1
    69    11    12    1
    70    90    89    2
    71    99   100    1
    72    13    14    1
    73    89    88    1
    74   102   101    1
    75   100   101    1
    76    14    15    1
    77    14    17    1
    78    92    91    1
    79    15    16    2
    80    78    76   ar
    81    77    76   ar
    82    17    18    1
    83    91    88    1
    84    91    93    1
    85    88    87    1
    86    76    75    1
    87    18    19    1
    88    61    60    1
    89    20    19    1
    90    20    21    1
    91    70    71    1
    92    71    72    1
    93    71    74    1
    94    29    27   am
    95    72    73    2
    96    69    67   am
    97    60    57    1
    98    75    74    1
    99    68    67    2
   100    27    28    2
   101    27    26    1
   102    67    66    1
   103    57    58    1
   104    57    56    1
   105    26    23    1
   106    59    58    2
   107    56    46   am
   108    66    63    1
   109    36    38   ar
   110    36    35   ar
   111    34    35    1
   112    34    31    1
   113    38    39   ar
   114    35    37   ar
   115    47    46    2
   116    25    24    2
   117    39    37   ar
   118    39    41   ar
   119    46    45    1
   120    37    40   ar
   121    63    62    1
   122    63    64    1
   123    41    43   ar
   124    23    24    1
   125    23    22    1
   126    40    42   ar
   127    24    30   am
   128    43    42   ar
   129    65    64    2
   130    44    45    1
   131    45    48    1
   132    30    31    1
   133    31    32    1
   134    33    32    2
   135    48    49    1
   136    49    50   ar
   137    49    51   ar
   138    50    52   ar
   139    51    53   ar
   140    52    54   ar
   141    53    54   ar
   142    54    55    1
