@<TRIPOS>MOLECULE
tmp/3bffD00.pdb
 137 130 0 0 0
SMALL
GASTEIGER

@<TRIPOS>ATOM
      1  N         80.0370    9.6210   12.5740 N.3    43  CYS43      -0.1221
      2  CA        80.6760    9.0190   11.4110 C.3    43  CYS43       0.1808
      3  C         79.7390    9.1250   10.2030 C.2    43  CYS43       0.2601
      4  O         79.1240   10.1860   10.0600 O.2    43  CYS43      -0.2717
      5  CB        81.1240    7.6010   11.7360 C.3    43  CYS43       0.0970
      6  SG        82.5470    7.7310   12.8750 S.3    43  CYS43      -0.0800
      7  N         79.5910    8.0930    9.3560 N.am   44  SER44      -0.1952
      8  CA        78.7250    8.2600    8.1640 C.3    44  SER44       0.1924
      9  C         77.2750    8.6080    8.4490 C.2    44  SER44       0.2314
     10  O         76.5730    9.0310    7.5340 O.2    44  SER44      -0.2863
     11  CB        78.6450    7.0320    7.1920 C.3    44  SER44       0.2116
     12  OG        79.9010    6.4130    6.7850 O.3    44  SER44      -0.2180
     13  N         75.7440   11.9130    7.3230 N.3    47  LYS47      -0.1245
     14  CA        75.3490   12.1580    5.9440 C.3    47  LYS47       0.1561
     15  C         73.8480   12.4090    5.7910 C.2    47  LYS47       0.2260
     16  O         73.4180   13.0400    4.8280 O.2    47  LYS47      -0.2867
     17  CB        75.8010   10.9850    5.0650 C.3    47  LYS47       0.0271
     18  CG        77.3220   10.9300    4.9120 C.3    47  LYS47       0.0035
     19  CD        77.8290    9.6010    4.3740 C.3    47  LYS47       0.0206
     20  CE        79.3540    9.6230    4.3060 C.3    47  LYS47       0.1093
     21  NZ        79.9510    8.2930    4.0470 N.3    47  LYS47      -0.1314
     22  N         89.1240    7.7760    0.3420 N.3    78  ASN78      -0.1225
     23  CA        89.4090    6.4060    0.7480 C.3    78  ASN78       0.1785
     24  C         88.2570    5.4480    0.4490 C.2    78  ASN78       0.2597
     25  O         88.4350    4.2300    0.4490 O.2    78  ASN78      -0.2718
     26  CB        89.7280    6.3820    2.2440 C.3    78  ASN78       0.1169
     27  CG        88.5740    6.8870    3.0950 C.2    78  ASN78       0.2627
     28  OD1       87.9600    7.9110    2.7870 O.2    78  ASN78      -0.2716
     29  ND2       88.2780    6.1730    4.1780 N.am   78  ASN78      -0.0877
     30  N         87.0760    6.0000    0.1930 N.am   79  TRP79      -0.1976
     31  CA        85.9010    5.1820   -0.0920 C.3    79  TRP79       0.1640
     32  C         85.0590    5.8740   -1.1670 C.2    79  TRP79       0.2290
     33  O         84.3500    6.8360   -0.8850 O.2    79  TRP79      -0.2864
     34  CB        85.0910    4.9880    1.1990 C.3    79  TRP79       0.0576
     35  CG        83.9330    4.0660    1.0410 C.ar   79  TRP79       0.0006
     36  CD1       82.6150    4.3610    1.2410 C.ar   79  TRP79       0.0946
     37  CD2       83.9750    2.7150    0.5710 C.ar   79  TRP79       0.0152
     38  NE1       81.8320    3.2800    0.9140 N.ar   79  TRP79      -0.2442
     39  CE2       82.6440    2.2550    0.4960 C.ar   79  TRP79       0.0810
     40  CE3       85.0110    1.8470    0.1950 C.ar   79  TRP79       0.0012
     41  CZ2       82.3170    0.9670    0.0640 C.ar   79  TRP79       0.0191
     42  CZ3       84.6870    0.5630   -0.2350 C.ar   79  TRP79       0.0001
     43  CH2       83.3510    0.1380   -0.2990 C.ar   79  TRP79       0.0015
     44  N         75.4020    4.2030   -0.4770 N.3   103  TYR103     -0.1227
     45  CA        76.6580    3.4580   -0.5360 C.3   103  TYR103      0.1736
     46  C         77.7010    4.0890    0.3810 C.2   103  TYR103      0.2596
     47  O         78.8310    3.6110    0.4700 O.2   103  TYR103     -0.2718
     48  CB        77.2000    3.3920   -1.9680 C.3   103  TYR103      0.0548
     49  CG        76.3200    2.6030   -2.9080 C.ar  103  TYR103     -0.0200
     50  CD1       75.2470    3.2070   -3.5620 C.ar  103  TYR103     -0.0009
     51  CD2       76.5350    1.2380   -3.1140 C.ar  103  TYR103     -0.0009
     52  CE1       74.4080    2.4730   -4.4000 C.ar  103  TYR103      0.0417
     53  CE2       75.7000    0.4950   -3.9470 C.ar  103  TYR103      0.0417
     54  CZ        74.6410    1.1180   -4.5850 C.ar  103  TYR103      0.1957
     55  OH        73.8100    0.3880   -5.4070 O.3   103  TYR103     -0.2866
     56  N         77.3030    5.1650    1.0570 N.am  104  SER104     -0.1952
     57  CA        78.1690    5.8920    1.9860 C.3   104  SER104      0.1924
     58  C         79.4440    6.3890    1.3060 C.2   104  SER104      0.2314
     59  O         80.5280    6.3870    1.8960 O.2   104  SER104     -0.2863
     60  CB        78.5180    5.0040    3.1830 C.3   104  SER104      0.2116
     61  OG        78.7310    5.7880    4.3470 O.3   104  SER104     -0.2180
     62  N         82.2490    8.5740    0.2520 N.3   106  ASN106     -0.1240
     63  CA        82.8920    9.7310    0.8710 C.3   106  ASN106      0.1653
     64  C         83.1430   10.9090   -0.0420 C.2   106  ASN106      0.2266
     65  O         83.0800   12.0560    0.3970 O.2   106  ASN106     -0.2867
     66  CB        84.2280    9.3490    1.4830 C.3   106  ASN106      0.1155
     67  CG        84.0730    8.6870    2.7840 C.2   106  ASN106      0.2627
     68  OD1       82.9890    8.7480    3.3820 O.2   106  ASN106     -0.2716
     69  ND2       85.1490    8.0530    3.2690 N.am  106  ASN106     -0.0877
     70  N         85.2540   14.6100    4.8620 N.3   140  GLU140     -0.1245
     71  CA        85.7060   13.2270    4.7670 C.3   140  GLU140      0.1567
     72  C         87.1750   13.2220    4.3390 C.2   140  GLU140      0.2260
     73  O         87.5930   14.0640    3.5570 O.2   140  GLU140     -0.2867
     74  CB        84.8880   12.4690    3.6980 C.3   140  GLU140      0.0388
     75  CG        83.3920   12.3810    3.9850 C.3   140  GLU140      0.1160
     76  CD        83.0570   11.4100    5.1030 C.2   140  GLU140      0.3649
     77  OE1       83.9910   10.7990    5.6640 O.co2 140  GLU140     -0.2457
     78  OE2       81.8560   11.2550    5.4150 O.co2 140  GLU140     -0.2457
     79  N         85.6810   10.9350   10.6100 N.3   144  ASN144     -0.1240
     80  CA        85.5000    9.5770   11.1150 C.3   144  ASN144      0.1653
     81  C         86.5210    9.1220   12.1610 C.2   144  ASN144      0.2266
     82  O         86.5420    7.9420   12.5180 O.2   144  ASN144     -0.2867
     83  CB        85.5140    8.5850    9.9510 C.3   144  ASN144      0.1155
     84  CG        84.5020    8.9350    8.8840 C.2   144  ASN144      0.2627
     85  OD1       84.8620    9.2230    7.7390 O.2   144  ASN144     -0.2716
     86  ND2       83.2270    8.9210    9.2520 N.am  144  ASN144     -0.0877
     87  N         73.7510   -0.6960    2.7410 N.3   190  THR190     -0.1218
     88  CA        74.7250   -1.1130    3.7500 C.3   190  THR190      0.1862
     89  C         74.2210   -1.5130    5.1390 C.2   190  THR190      0.2287
     90  O         75.0330   -1.8000    6.0180 O.2   190  THR190     -0.2866
     91  CB        75.7660   -0.0030    3.9820 C.3   190  THR190      0.1770
     92  OG1       75.1170    1.1290    4.5750 O.3   190  THR190     -0.2211
     93  CG2       76.4100    0.4170    2.6740 C.3   190  THR190      0.0375
     94  N         70.6010    4.5970    7.7670 N.3   208  LYS208     -0.1231
     95  CA        71.9370    5.0210    7.3670 C.3   208  LYS208      0.1693
     96  C         72.9030    4.5270    8.4330 C.2   208  LYS208      0.2592
     97  O         72.7900    4.8810    9.6140 O.2   208  LYS208     -0.2718
     98  CB        72.0640    6.5390    7.2580 C.3   208  LYS208      0.0285
     99  CG        73.4540    6.9790    6.7790 C.3   208  LYS208      0.0035
    100  CD        73.7150    6.5470    5.3320 C.3   208  LYS208      0.0206
    101  CE        75.1840    6.7180    4.9260 C.3   208  LYS208      0.1093
    102  NZ        76.0640    5.6280    5.4540 N.3   208  LYS208     -0.1314
    103  N         73.8530    3.7120    7.9990 N.am  209  THR209     -0.1953
    104  CA        74.8510    3.1380    8.8810 C.3   209  THR209      0.1897
    105  C         76.1150    3.9820    8.9520 C.2   209  THR209      0.2313
    106  O         76.2800    4.9640    8.2210 O.2   209  THR209     -0.2863
    107  CB        75.2650    1.7430    8.3970 C.3   209  THR209      0.1794
    108  OG1       75.6260    1.8210    7.0120 O.3   209  THR209     -0.2208
    109  CG2       74.1260    0.7510    8.5650 C.3   209  THR209      0.0378
    110  N         80.4980    3.2650   10.0810 N.3   211  ALA211     -0.1245
    111  CA        81.5420    2.3310   10.4960 C.3   211  ALA211      0.1562
    112  C         82.8530    3.0990   10.4240 C.2   211  ALA211      0.2260
    113  O         83.2850    3.5020    9.3450 O.2   211  ALA211     -0.2867
    114  CB        81.5800    1.1240    9.5640 C.3   211  ALA211      0.0290
    115  N         84.4530   -3.9140   13.8810 N.3   246  TRP246     -0.1241
    116  CA        83.0750   -3.4420   13.9890 C.3   246  TRP246      0.1605
    117  C         82.1180   -4.4970   14.5340 C.2   246  TRP246      0.2264
    118  O         82.3280   -5.6970   14.3530 O.2   246  TRP246     -0.2867
    119  CB        82.5940   -2.9180   12.6330 C.3   246  TRP246      0.0550
    120  CG        83.4050   -1.7440   12.1680 C.ar  246  TRP246      0.0003
    121  CD1       83.7790   -0.6630   12.9150 C.ar  246  TRP246      0.0946
    122  CD2       83.9450   -1.5320   10.8590 C.ar  246  TRP246      0.0152
    123  NE1       84.5200    0.2080   12.1530 N.ar  246  TRP246     -0.2442
    124  CE2       84.6350   -0.2990   10.8860 C.ar  246  TRP246      0.0810
    125  CE3       83.9110   -2.2610    9.6620 C.ar  246  TRP246      0.0012
    126  CZ2       85.2900    0.2220    9.7630 C.ar  246  TRP246      0.0191
    127  CZ3       84.5630   -1.7420    8.5420 C.ar  246  TRP246      0.0001
    128  CH2       85.2420   -0.5110    8.6040 C.ar  246  TRP246      0.0015
    129  N         78.3490   -4.9340   14.1120 N.3   248  LYS248     -0.1245
    130  CA        77.0110   -4.6710   13.6010 C.3   248  LYS248      0.1561
    131  C         76.0150   -5.5710   14.3200 C.2   248  LYS248      0.2260
    132  O         74.8350   -5.2350   14.4460 O.2   248  LYS248     -0.2867
    133  CB        76.9680   -4.9110   12.0920 C.3   248  LYS248      0.0271
    134  CG        77.8540   -3.9450   11.3100 C.3   248  LYS248      0.0035
    135  CD        77.8650   -4.2730    9.8240 C.3   248  LYS248      0.0206
    136  CE        78.7850   -3.3260    9.0650 C.3   248  LYS248      0.1093
    137  NZ        78.8790   -3.6630    7.6160 N.3   248  LYS248     -0.1314
@<TRIPOS>BOND
     1    55    54    1
     2    54    52   ar
     3    54    53   ar
     4    52    50   ar
     5    53    51   ar
     6    50    49   ar
     7    51    49   ar
     8    49    48    1
     9    48    45    1
    10    32    33    2
    11    32    31    1
    12    45    44    1
    13    45    46    1
    14    43    42   ar
    15    43    41   ar
    16    42    40   ar
    17    31    30    1
    18    31    34    1
    19    64    65    2
    20    64    63    1
    21    41    39   ar
    22    30    24   am
    23    40    37   ar
    24    62    63    1
    25    22    23    1
    26    46    47    2
    27    46    56   am
    28    24    25    2
    29    24    23    1
    30    39    37   ar
    31    39    38   ar
    32    37    35   ar
    33    23    26    1
    34    63    66    1
    35    38    36   ar
    36    35    34    1
    37    35    36   ar
    38    56    57    1
    39    58    59    2
    40    58    57    1
    41    66    67    1
    42    57    60    1
    43    26    27    1
    44    93    91    1
    45    87    88    1
    46    67    69   am
    47    67    68    2
    48    28    27    2
    49    27    29   am
    50    60    61    1
    51    73    72    2
    52    74    75    1
    53    74    71    1
    54    88    91    1
    55    88    89    1
    56    91    92    1
    57    75    76    1
    58    21    20    1
    59    20    19    1
    60    72    71    1
    61    19    18    1
    62    71    70    1
    63    16    15    2
    64    18    17    1
    65   101   100    1
    66   101   102    1
    67    17    14    1
    68    76    78   ar
    69    76    77   ar
    70    89    90    2
    71   100    99    1
    72    15    14    1
    73    14    13    1
    74    99    98    1
    75    12    11    1
    76   108   107    1
    77    11     8    1
    78    98    95    1
    79    95    94    1
    80    95    96    1
    81    10     9    2
    82   137   136    1
    83    85    84    2
    84   103    96   am
    85   103   104    1
    86     8     9    1
    87     8     7    1
    88   106   105    2
    89   107   109    1
    90   107   104    1
    91    96    97    2
    92   127   128   ar
    93   127   125   ar
    94   128   126   ar
    95   104   105    1
    96    84    86   am
    97    84    83    1
    98   136   135    1
    99   113   112    2
   100     7     3   am
   101   114   111    1
   102   125   122   ar
   103   126   124   ar
   104   135   134    1
   105    83    80    1
   106     4     3    2
   107   110   111    1
   108     3     2    1
   109   112   111    1
   110    79    80    1
   111   122   124   ar
   112   122   120   ar
   113   124   123   ar
   114    80    81    1
   115   134   133    1
   116     2     5    1
   117     2     1    1
   118     5     6    1
   119   133   130    1
   120   123   121   ar
   121    81    82    2
   122   120   119    1
   123   120   121   ar
   124   119   116    1
   125   130   129    1
   126   130   131    1
   127   115   116    1
   128   116   117    1
   129   131   132    2
   130   118   117    2
