@<TRIPOS>MOLECULE
tmp/3bffC00.pdb
 76 70 0 0 0
SMALL
GASTEIGER

@<TRIPOS>ATOM
      1  N         34.8580   17.3850   24.0610 N.3    68  LYS68      -0.1231
      2  CA        33.7810   16.4010   24.0540 C.3    68  LYS68       0.1693
      3  C         32.4580   16.8070   23.4270 C.2    68  LYS68       0.2592
      4  O         32.1100   17.9850   23.3520 O.2    68  LYS68      -0.2718
      5  CB        33.4910   15.9330   25.4820 C.3    68  LYS68       0.0285
      6  CG        34.7140   15.6330   26.3250 C.3    68  LYS68       0.0035
      7  CD        34.2960   15.0420   27.6620 C.3    68  LYS68       0.0206
      8  CE        35.3170   15.3390   28.7450 C.3    68  LYS68       0.1093
      9  NZ        35.0000   14.6120   30.0030 N.3    68  LYS68      -0.1314
     10  N         31.7260   15.7870   22.9930 N.am   69  MET69      -0.1965
     11  CA        30.4040   15.9390   22.4090 C.3    69  MET69       0.1736
     12  C         29.5570   14.8400   23.0480 C.2    69  MET69       0.2617
     13  O         30.0930   13.8390   23.5350 O.2    69  MET69      -0.2715
     14  CB        30.4510   15.7770   20.8850 C.3    69  MET69       0.0427
     15  CG        31.1620   16.9220   20.1690 C.3    69  MET69       0.0599
     16  SD        30.8860   16.9190   18.3870 S.3    69  MET69      -0.1393
     17  CE        29.3670   17.8410   18.2640 C.3    69  MET69       0.0692
     18  N         28.2460   15.0400   23.0760 N.am   70  THR70      -0.1951
     19  CA        27.3360   14.0650   23.6690 C.3    70  THR70       0.1897
     20  C         26.5990   13.2610   22.6130 C.2    70  THR70       0.2313
     21  O         26.1870   13.7900   21.5800 O.2    70  THR70      -0.2863
     22  CB        26.2710   14.7540   24.5530 C.3    70  THR70       0.1794
     23  OG1       26.9220   15.5160   25.5740 O.3    70  THR70      -0.2208
     24  CG2       25.3560   13.7240   25.2080 C.3    70  THR70       0.0378
     25  N         23.3170   11.4610   22.0710 N.3    72  LYS72      -0.1245
     26  CA        21.9780   11.2740   22.6070 C.3    72  LYS72       0.1561
     27  C         21.2500   10.3010   21.6940 C.2    72  LYS72       0.2260
     28  O         21.5990   10.1610   20.5220 O.2    72  LYS72      -0.2867
     29  CB        21.2250   12.6080   22.6690 C.3    72  LYS72       0.0271
     30  CG        20.9800   13.2520   21.3200 C.3    72  LYS72       0.0035
     31  CD        20.3080   14.6100   21.4600 C.3    72  LYS72       0.0206
     32  CE        20.0910   15.2510   20.0960 C.3    72  LYS72       0.1093
     33  NZ        19.3620   16.5460   20.1870 N.3    72  LYS72      -0.1314
     34  N         20.5350   11.3840   18.2810 N.3    75  ASP75      -0.1239
     35  CA        21.5890   11.5500   17.2820 C.3    75  ASP75       0.1674
     36  C         21.8310   10.2590   16.5090 C.2    75  ASP75       0.2266
     37  O         22.3860   10.2800   15.4110 O.2    75  ASP75      -0.2867
     38  CB        22.9050   11.9820   17.9390 C.3    75  ASP75       0.1410
     39  CG        22.8310   13.3690   18.5440 C.2    75  ASP75       0.3668
     40  OD1       22.3670   14.3020   17.8530 O.co2  75  ASP75      -0.2456
     41  OD2       23.2500   13.5280   19.7090 O.co2  75  ASP75      -0.2456
     42  N         29.6040   10.8740   26.6600 N.3    90  THR90      -0.1218
     43  CA        30.3680   11.7490   25.7790 C.3    90  THR90       0.1862
     44  C         31.5070   11.0400   25.0570 C.2    90  THR90       0.2287
     45  O         31.9900    9.9980   25.4980 O.2    90  THR90      -0.2866
     46  CB        30.9840   12.9370   26.5510 C.3    90  THR90       0.1770
     47  OG1       31.8120   12.4410   27.6100 O.3    90  THR90      -0.2211
     48  CG2       29.8950   13.8290   27.1270 C.3    90  THR90       0.0375
     49  N         28.1320   14.1640   14.1260 N.3   111  LYS111     -0.1245
     50  CA        28.6310   14.9210   15.2660 C.3   111  LYS111      0.1561
     51  C         29.7680   15.8360   14.8240 C.2   111  LYS111      0.2260
     52  O         29.8120   17.0110   15.1940 O.2   111  LYS111     -0.2867
     53  CB        29.1090   13.9700   16.3700 C.3   111  LYS111      0.0271
     54  CG        27.9700   13.3870   17.1960 C.3   111  LYS111      0.0035
     55  CD        27.2410   14.5070   17.9290 C.3   111  LYS111      0.0206
     56  CE        26.0240   14.0080   18.6700 C.3   111  LYS111      0.1093
     57  NZ        25.3690   15.1260   19.4080 N.3   111  LYS111     -0.1314
     58  N         28.4170   18.6760   12.7930 N.3   114  ALA114     -0.1231
     59  CA        27.7810   19.6610   13.6590 C.3   114  ALA114      0.1694
     60  C         28.8620   20.5370   14.2830 C.2   114  ALA114      0.2592
     61  O         28.7370   21.7620   14.3220 O.2   114  ALA114     -0.2718
     62  CB        26.9800   18.9630   14.7410 C.3   114  ALA114      0.0304
     63  N         29.9230   19.9050   14.7730 N.am  115  HIS115     -0.1976
     64  CA        31.0270   20.6380   15.3780 C.3   115  HIS115      0.1656
     65  C         31.6520   21.6210   14.3890 C.2   115  HIS115      0.2291
     66  O         31.9590   22.7630   14.7420 O.2   115  HIS115     -0.2864
     67  CB        32.1200   19.6790   15.8600 C.3   115  HIS115      0.0771
     68  CG        33.3980   20.3700   16.2190 C.ar  115  HIS115      0.0820
     69  ND1       33.5380   21.1330   17.3590 N.ar  115  HIS115     -0.2267
     70  CD2       34.5740   20.4730   15.5530 C.ar  115  HIS115      0.1154
     71  CE1       34.7430   21.6750   17.3800 C.ar  115  HIS115      0.1986
     72  NE2       35.3910   21.2900   16.2940 N.ar  115  HIS115     -0.2212
     73  N         30.2640   23.0190   11.8770 N.3   117  GLY117     -0.1225
     74  CA        29.3440   24.0300   11.3840 C.3   117  GLY117      0.1811
     75  C         28.6350   23.6730   10.0860 C.2   117  GLY117      0.2280
     76  O         28.0820   24.5510    9.4140 O.2   117  GLY117     -0.2866
@<TRIPOS>BOND
     1    76    75    2
     2    75    74    1
     3    74    73    1
     4    58    59    1
     5    59    60    1
     6    59    62    1
     7    49    50    1
     8    60    61    2
     9    60    63   am
    10    65    66    2
    11    65    64    1
    12    63    64    1
    13    51    52    2
    14    51    50    1
    15    50    53    1
    16    64    67    1
    17    37    36    2
    18    70    68   ar
    19    70    72   ar
    20    67    68    1
    21    68    69   ar
    22    72    71   ar
    23    53    54    1
    24    36    35    1
    25    54    55    1
    26    35    38    1
    27    35    34    1
    28    69    71   ar
    29    40    39   ar
    30    55    56    1
    31    38    39    1
    32    17    16    1
    33    16    15    1
    34    39    41   ar
    35    56    57    1
    36    32    33    1
    37    32    31    1
    38    15    14    1
    39    28    27    2
    40    14    11    1
    41    30    31    1
    42    30    29    1
    43    21    20    2
    44    27    26    1
    45    25    26    1
    46    11    10    1
    47    11    12    1
    48    26    29    1
    49    20    19    1
    50    10     3   am
    51    12    18   am
    52    12    13    2
    53    18    19    1
    54     4     3    2
    55     3     2    1
    56    19    22    1
    57     2     1    1
    58     2     5    1
    59    22    24    1
    60    22    23    1
    61    44    45    2
    62    44    43    1
    63     5     6    1
    64    43    46    1
    65    43    42    1
    66     6     7    1
    67    46    48    1
    68    46    47    1
    69     7     8    1
    70     8     9    1
