@<TRIPOS>MOLECULE
tmp/3bfgD00.pdb
 129 122 0 0 0
SMALL
GASTEIGER

@<TRIPOS>ATOM
      1  N         80.4810    8.9790   12.2360 N.3    43  CYS43      -0.1221
      2  CA        81.0280    8.2780   11.0730 C.3    43  CYS43       0.1808
      3  C         80.1280    8.6440    9.8650 C.2    43  CYS43       0.2601
      4  O         79.6770    9.7700    9.7410 O.2    43  CYS43      -0.2717
      5  CB        81.0280    6.7380   11.2290 C.3    43  CYS43       0.0970
      6  SG        81.7970    5.8360   12.6290 S.3    43  CYS43      -0.0800
      7  N         79.8460    7.6900    8.9930 N.am   44  SER44      -0.1952
      8  CA        79.0240    7.9580    7.8130 C.3    44  SER44       0.1924
      9  C         77.5840    8.3430    8.0670 C.2    44  SER44       0.2314
     10  O         76.9100    8.7800    7.1410 O.2    44  SER44      -0.2863
     11  CB        79.0150    6.7540    6.8770 C.3    44  SER44       0.2116
     12  OG        80.3080    6.2050    6.7220 O.3    44  SER44      -0.2180
     13  N         76.0790   11.6200    7.0100 N.3    47  LYS47      -0.1245
     14  CA        75.7110   11.8080    5.6150 C.3    47  LYS47       0.1561
     15  C         74.2160   12.1060    5.4490 C.2    47  LYS47       0.2260
     16  O         73.8030   12.6950    4.4460 O.2    47  LYS47      -0.2867
     17  CB        76.0900   10.5630    4.8040 C.3    47  LYS47       0.0271
     18  CG        77.5940   10.3510    4.6330 C.3    47  LYS47       0.0035
     19  CD        77.8690    9.0690    3.8600 C.3    47  LYS47       0.0206
     20  CE        79.3240    8.9500    3.4260 C.3    47  LYS47       0.1093
     21  NZ        80.2430    8.6620    4.5480 N.3    47  LYS47      -0.1314
     22  N         89.1560    7.3810    0.2330 N.3    78  ASN78      -0.1225
     23  CA        89.3770    5.9870    0.6010 C.3    78  ASN78       0.1785
     24  C         88.2300    5.0400    0.2440 C.2    78  ASN78       0.2597
     25  O         88.4100    3.8240    0.2310 O.2    78  ASN78      -0.2718
     26  CB        89.6770    5.9000    2.1010 C.3    78  ASN78       0.1169
     27  CG        88.5320    6.4150    2.9570 C.2    78  ASN78       0.2627
     28  OD1       87.8920    7.4140    2.6220 O.2    78  ASN78      -0.2716
     29  ND2       88.2760    5.7420    4.0730 N.am   78  ASN78      -0.0877
     30  N         87.0540    5.5870   -0.0380 N.am   79  TRP79      -0.1976
     31  CA        85.9100    4.7580   -0.3960 C.3    79  TRP79       0.1640
     32  C         85.0930    5.4680   -1.4700 C.2    79  TRP79       0.2290
     33  O         84.3260    6.3910   -1.1820 O.2    79  TRP79      -0.2864
     34  CB        85.0510    4.4850    0.8390 C.3    79  TRP79       0.0576
     35  CG        83.9620    3.5200    0.5680 C.ar   79  TRP79       0.0006
     36  CD1       82.6220    3.7600    0.6180 C.ar   79  TRP79       0.0946
     37  CD2       84.1120    2.1600    0.1540 C.ar   79  TRP79       0.0152
     38  NE1       81.9240    2.6340    0.2530 N.ar   79  TRP79      -0.2442
     39  CE2       82.8170    1.6370   -0.0420 C.ar   79  TRP79       0.0810
     40  CE3       85.2190    1.3340   -0.0810 C.ar   79  TRP79       0.0012
     41  CZ2       82.5930    0.3200   -0.4520 C.ar   79  TRP79       0.0191
     42  CZ3       84.9970    0.0210   -0.4890 C.ar   79  TRP79       0.0001
     43  CH2       83.6920   -0.4690   -0.6750 C.ar   79  TRP79       0.0015
     44  N         77.5120    4.8380    0.6990 N.3   104  SER104     -0.1217
     45  CA        78.3880    5.5420    1.6280 C.3   104  SER104      0.1889
     46  C         79.6500    6.0470    0.9450 C.2   104  SER104      0.2288
     47  O         80.7330    6.0070    1.5250 O.2   104  SER104     -0.2866
     48  CB        78.7680    4.6160    2.7840 C.3   104  SER104      0.2089
     49  OG        78.9320    5.3450    3.9830 O.3   104  SER104     -0.2183
     50  N         82.4860    8.2160   -0.0150 N.3   106  ASN106     -0.1240
     51  CA        83.1590    9.3390    0.6370 C.3   106  ASN106      0.1653
     52  C         83.4070   10.5380   -0.2630 C.2   106  ASN106      0.2266
     53  O         83.2760   11.6800    0.1790 O.2   106  ASN106     -0.2867
     54  CB        84.4940    8.8950    1.2410 C.3   106  ASN106      0.1155
     55  CG        84.3350    8.2920    2.6130 C.2   106  ASN106      0.2627
     56  OD1       83.2570    8.3450    3.2060 O.2   106  ASN106     -0.2716
     57  ND2       85.4100    7.7240    3.1350 N.am  106  ASN106     -0.0877
     58  N         85.5770   14.2260    4.7150 N.3   140  GLU140     -0.1245
     59  CA        86.0300   12.8440    4.5870 C.3   140  GLU140      0.1567
     60  C         87.5040   12.8580    4.2080 C.2   140  GLU140      0.2260
     61  O         87.9310   13.6850    3.4020 O.2   140  GLU140     -0.2867
     62  CB        85.2560   12.1220    3.4830 C.3   140  GLU140      0.0388
     63  CG        83.7970   11.8680    3.7810 C.3   140  GLU140      0.1160
     64  CD        83.5940   10.9460    4.9640 C.2   140  GLU140      0.3649
     65  OE1       84.5370   10.2120    5.3280 O.co2 140  GLU140     -0.2457
     66  OE2       82.4800   10.9460    5.5230 O.co2 140  GLU140     -0.2457
     67  N         86.1550   10.6180   10.4890 N.3   144  ASN144     -0.1240
     68  CA        86.0020    9.2720   11.0240 C.3   144  ASN144      0.1653
     69  C         87.0170    8.8560   12.0960 C.2   144  ASN144      0.2266
     70  O         87.1020    7.6720   12.4170 O.2   144  ASN144     -0.2867
     71  CB        86.0560    8.2390    9.8900 C.3   144  ASN144      0.1155
     72  CG        85.0470    8.5140    8.7930 C.2   144  ASN144      0.2627
     73  OD1       85.4140    8.8960    7.6810 O.2   144  ASN144     -0.2716
     74  ND2       83.7710    8.3260    9.0970 N.am  144  ASN144     -0.0877
     75  N         74.0290   -1.0110    2.3880 N.3   190  THR190     -0.1218
     76  CA        75.0260   -1.4410    3.3710 C.3   190  THR190      0.1862
     77  C         74.5280   -1.8080    4.7730 C.2   190  THR190      0.2287
     78  O         75.3370   -2.1310    5.6440 O.2   190  THR190     -0.2866
     79  CB        76.1000   -0.3500    3.5570 C.3   190  THR190      0.1770
     80  OG1       75.4970    0.8070    4.1490 O.3   190  THR190     -0.2211
     81  CG2       76.7150    0.0430    2.2220 C.3   190  THR190      0.0375
     82  N         70.8680    4.3250    7.5100 N.3   208  LYS208     -0.1231
     83  CA        72.1990    4.7260    7.1080 C.3   208  LYS208      0.1693
     84  C         73.1570    4.1830    8.1490 C.2   208  LYS208      0.2593
     85  O         73.0670    4.5130    9.3350 O.2   208  LYS208     -0.2718
     86  CB        72.3400    6.2440    7.0200 C.3   208  LYS208      0.0285
     87  CG        73.7270    6.6710    6.5500 C.3   208  LYS208      0.0035
     88  CD        73.9830    6.2080    5.1210 C.3   208  LYS208      0.0206
     89  CE        75.4260    6.4380    4.6800 C.3   208  LYS208      0.1093
     90  NZ        76.3220    5.2890    5.0210 N.3   208  LYS208     -0.1314
     91  N         74.0610    3.3280    7.6940 N.am  209  THR209     -0.1939
     92  CA        75.0450    2.7220    8.5700 C.3   209  THR209      0.2028
     93  C         76.3030    3.5670    8.6080 C.2   209  THR209      0.2643
     94  O         76.4380    4.5530    7.8790 O.2   209  THR209     -0.2714
     95  CB        75.4190    1.3110    8.0860 C.3   209  THR209      0.1808
     96  OG1       75.5550    1.3230    6.6600 O.3   209  THR209     -0.2208
     97  CG2       74.3580    0.3050    8.4780 C.3   209  THR209      0.0379
     98  N         77.2210    3.1670    9.4760 N.am  210  GLY210     -0.1939
     99  CA        78.4760    3.8660    9.6110 C.3   210  GLY210      0.2014
    100  C         79.4370    2.9890   10.3800 C.2   210  GLY210      0.2638
    101  O         79.0350    2.2340   11.2640 O.2   210  GLY210     -0.2714
    102  N         80.7110    3.0710   10.0320 N.am  211  ALA211     -0.1977
    103  CA        81.7310    2.2960   10.7140 C.3   211  ALA211      0.1597
    104  C         83.0270    3.0660   10.6040 C.2   211  ALA211      0.2287
    105  O         83.3960    3.5250    9.5240 O.2   211  ALA211     -0.2864
    106  CB        81.8780    0.9130   10.0730 C.3   211  ALA211      0.0319
    107  N         84.8400   -3.9820   13.7200 N.3   246  TRP246     -0.1241
    108  CA        83.4570   -3.5230   13.7350 C.3   246  TRP246      0.1605
    109  C         82.5150   -4.5970   14.2650 C.2   246  TRP246      0.2264
    110  O         82.7170   -5.7910   14.0390 O.2   246  TRP246     -0.2867
    111  CB        83.0470   -3.0650   12.3340 C.3   246  TRP246      0.0550
    112  CG        83.8440   -1.8730   11.8940 C.ar  246  TRP246      0.0003
    113  CD1       84.2660   -0.8350   12.6810 C.ar  246  TRP246      0.0946
    114  CD2       84.3010   -1.5800   10.5700 C.ar  246  TRP246      0.0152
    115  NE1       84.9640    0.0770   11.9330 N.ar  246  TRP246     -0.2442
    116  CE2       85.0120   -0.3590   10.6350 C.ar  246  TRP246      0.0810
    117  CE3       84.2010   -2.2400    9.3380 C.ar  246  TRP246      0.0012
    118  CZ2       85.5930    0.2330    9.5090 C.ar  246  TRP246      0.0191
    119  CZ3       84.7820   -1.6490    8.2140 C.ar  246  TRP246      0.0001
    120  CH2       85.4790   -0.4320    8.3140 C.ar  246  TRP246      0.0015
    121  N         78.8130   -5.0770   13.8710 N.3   248  LYS248     -0.1245
    122  CA        77.4670   -4.8280   13.3510 C.3   248  LYS248      0.1561
    123  C         76.4550   -5.7430   14.0400 C.2   248  LYS248      0.2260
    124  O         75.2670   -5.4230   14.1290 O.2   248  LYS248     -0.2867
    125  CB        77.4360   -5.0490   11.8350 C.3   248  LYS248      0.0271
    126  CG        78.3430   -4.1000   11.0670 C.3   248  LYS248      0.0035
    127  CD        78.3440   -4.4080    9.5800 C.3   248  LYS248      0.0206
    128  CE        79.3040   -3.4940    8.8300 C.3   248  LYS248      0.1093
    129  NZ        79.3000   -3.7760    7.3670 N.3   248  LYS248     -0.1314
@<TRIPOS>BOND
     1    32    33    2
     2    32    31    1
     3    43    42   ar
     4    43    41   ar
     5    42    40   ar
     6    41    39   ar
     7    31    30    1
     8    31    34    1
     9    52    53    2
    10    52    51    1
    11    40    37   ar
    12    39    37   ar
    13    39    38   ar
    14    30    24   am
    15    50    51    1
    16    37    35   ar
    17    25    24    2
    18    22    23    1
    19    24    23    1
    20    38    36   ar
    21    35    36   ar
    22    35    34    1
    23    23    26    1
    24    51    54    1
    25    44    45    1
    26    46    47    2
    27    46    45    1
    28    54    55    1
    29    45    48    1
    30    26    27    1
    31    81    79    1
    32    75    76    1
    33    55    57   am
    34    55    56    2
    35    28    27    2
    36    48    49    1
    37    27    29   am
    38    76    79    1
    39    76    77    1
    40    61    60    2
    41    20    19    1
    42    20    21    1
    43    62    63    1
    44    62    59    1
    45    79    80    1
    46    63    64    1
    47    19    18    1
    48    60    59    1
    49    16    15    2
    50    59    58    1
    51    18    17    1
    52    89    90    1
    53    89    88    1
    54    77    78    2
    55    17    14    1
    56    64    65   ar
    57    64    66   ar
    58    88    87    1
    59    15    14    1
    60    14    13    1
    61    87    86    1
    62    96    95    1
    63    12    11    1
    64    11     8    1
    65    86    83    1
    66    83    82    1
    67    83    84    1
    68    10     9    2
    69   129   128    1
    70    73    72    2
    71    91    84   am
    72    91    92    1
    73     8     9    1
    74     8     7    1
    75    94    93    2
    76    95    97    1
    77    95    92    1
    78    84    85    2
    79   119   120   ar
    80   119   117   ar
    81   120   118   ar
    82    92    93    1
    83    93    98   am
    84    72    74   am
    85    72    71    1
    86   128   127    1
    87     7     3   am
    88   117   114   ar
    89    98    99    1
    90   118   116   ar
    91   105   104    2
    92   127   126    1
    93    99   100    1
    94     4     3    2
    95     3     2    1
    96    71    68    1
    97   102   100   am
    98   102   103    1
    99   106   103    1
   100   100   101    2
   101    67    68    1
   102   114   116   ar
   103   114   112   ar
   104   104   103    1
   105   116   115   ar
   106    68    69    1
   107   126   125    1
   108     2     5    1
   109     2     1    1
   110     5     6    1
   111   125   122    1
   112   112   111    1
   113   112   113   ar
   114   115   113   ar
   115    69    70    2
   116   111   108    1
   117   122   121    1
   118   122   123    1
   119   107   108    1
   120   108   109    1
   121   110   109    2
   122   123   124    2
