@<TRIPOS>MOLECULE
tmp/3bfhA00.pdb
 161 154 0 0 0
SMALL
GASTEIGER

@<TRIPOS>ATOM
      1  N         24.6490   14.4830   -7.4230 N.3     6  VAL6       -0.1245
      2  CA        23.4350   13.8430   -6.9450 C.3     6  VAL6        0.1561
      3  C         22.4380   13.7040   -8.0770 C.2     6  VAL6        0.2260
      4  O         21.7190   12.7240   -8.1330 O.2     6  VAL6       -0.2867
      5  CB        22.8060   14.6060   -5.7550 C.3     6  VAL6        0.0252
      6  CG1       21.5350   13.9300   -5.2810 C.3     6  VAL6        0.0019
      7  CG2       23.7950   14.6670   -4.5890 C.3     6  VAL6        0.0019
      8  N         23.1330   10.5560  -10.1140 N.3     9  LEU9       -0.1231
      9  CA        22.8910    9.4120   -9.2320 C.3     9  LEU9        0.1693
     10  C         21.4050    9.0220   -9.1940 C.2     9  LEU9        0.2591
     11  O         21.0760    7.8430   -9.2830 O.2     9  LEU9       -0.2718
     12  CB        23.3640    9.7020   -7.7930 C.3     9  LEU9        0.0284
     13  CG        24.3610    8.6940   -7.2200 C.3     9  LEU9        0.0019
     14  CD1       25.7200    8.9550   -7.8130 C.3     9  LEU9        0.0001
     15  CD2       24.4280    8.7750   -5.7070 C.3     9  LEU9        0.0001
     16  N         20.5150    9.9970   -9.0410 N.am   10  VAL10      -0.1980
     17  CA        19.0930    9.7090   -8.8800 C.3    10  VAL10       0.1595
     18  C         18.3070    9.5750  -10.1860 C.2    10  VAL10       0.2287
     19  O         17.1420    9.2360  -10.1320 O.2    10  VAL10      -0.2864
     20  CB        18.3510   10.7540   -7.9550 C.3    10  VAL10       0.0276
     21  CG1       19.1440   11.0040   -6.6870 C.3    10  VAL10       0.0022
     22  CG2       18.0880   12.0540   -8.6930 C.3    10  VAL10       0.0022
     23  N          5.5500    9.7820   -5.1980 N.3    45  TYR45      -0.1227
     24  CA         6.8540   10.0540   -5.7880 C.3    45  TYR45       0.1736
     25  C          7.9100   10.2930   -4.7000 C.2    45  TYR45       0.2595
     26  O          8.9950    9.7200   -4.7650 O.2    45  TYR45      -0.2718
     27  CB         6.8190   11.2930   -6.6790 C.3    45  TYR45       0.0548
     28  CG         8.1900   11.7150   -7.1450 C.ar   45  TYR45      -0.0200
     29  CD1        8.8380   11.0300   -8.1550 C.ar   45  TYR45      -0.0009
     30  CD2        8.8510   12.7690   -6.5430 C.ar   45  TYR45      -0.0009
     31  CE1       10.0810   11.4150   -8.5810 C.ar   45  TYR45       0.0417
     32  CE2       10.1280   13.1650   -6.9670 C.ar   45  TYR45       0.0417
     33  CZ        10.7390   12.4680   -7.9640 C.ar   45  TYR45       0.1957
     34  OH        12.0020   12.8310   -8.4180 O.3    45  TYR45      -0.2866
     35  N          7.5920   11.1330   -3.7080 N.am   46  MET46      -0.1979
     36  CA         8.5390   11.4020   -2.6470 C.3    46  MET46       0.1605
     37  C          8.8820   10.1290   -1.8400 C.2    46  MET46       0.2287
     38  O         10.0560    9.8820   -1.5520 O.2    46  MET46      -0.2864
     39  CB         8.0340   12.5280   -1.7390 C.3    46  MET46       0.0413
     40  CG         8.0070   13.9030   -2.4650 C.3    46  MET46       0.0598
     41  SD         7.6030   15.2510   -1.3630 S.3    46  MET46      -0.1393
     42  CE         5.8430   15.0640   -1.1970 C.3    46  MET46       0.0692
     43  N         11.1610    7.8130   -4.0960 N.3    49  LEU49      -0.1231
     44  CA        12.5550    8.1900   -4.2470 C.3    49  LEU49       0.1693
     45  C         13.3620    7.9870   -2.9530 C.2    49  LEU49       0.2591
     46  O         14.5050    7.5560   -2.9980 O.2    49  LEU49      -0.2718
     47  CB        12.6310    9.6490   -4.7100 C.3    49  LEU49       0.0284
     48  CG        13.8820   10.0900   -5.4500 C.3    49  LEU49       0.0019
     49  CD1       14.2450    9.1670   -6.6270 C.3    49  LEU49       0.0001
     50  CD2       13.6600   11.5640   -5.8960 C.3    49  LEU49       0.0001
     51  N         12.7770    8.3320   -1.8040 N.am   50  LEU50      -0.1980
     52  CA        13.3930    8.0290   -0.4980 C.3    50  LEU50       0.1596
     53  C         13.6780    6.5390   -0.3360 C.2    50  LEU50       0.2287
     54  O         14.7200    6.1530    0.1580 O.2    50  LEU50      -0.2864
     55  CB        12.5010    8.5090    0.6340 C.3    50  LEU50       0.0297
     56  CG        12.3400   10.0080    0.7910 C.3    50  LEU50       0.0022
     57  CD1       11.2720   10.3630    1.8280 C.3    50  LEU50       0.0001
     58  CD2       13.6340   10.6570    1.1550 C.3    50  LEU50       0.0001
     59  N         16.6540    5.0210   -2.1610 N.3    53  PHE53      -0.1241
     60  CA        17.9300    5.2250   -1.5110 C.3    53  PHE53       0.1605
     61  C         18.0000    4.8230   -0.0460 C.2    53  PHE53       0.2264
     62  O         18.8320    5.3180    0.6970 O.2    53  PHE53      -0.2867
     63  CB        18.3850    6.6480   -1.7920 C.3    53  PHE53       0.0534
     64  CG        18.7270    6.8330   -3.2330 C.ar   53  PHE53      -0.0203
     65  CD1       19.9820    6.4820   -3.7010 C.ar   53  PHE53      -0.0042
     66  CD2       17.7700    7.2540   -4.1430 C.ar   53  PHE53      -0.0042
     67  CE1       20.2810    6.6020   -5.0440 C.ar   53  PHE53      -0.0003
     68  CE2       18.0750    7.3680   -5.4780 C.ar   53  PHE53      -0.0003
     69  CZ        19.3110    7.0460   -5.9190 C.ar   53  PHE53      -0.0000
     70  N         16.3120    5.4450    2.4700 N.3    55  LEU55      -0.1245
     71  CA        16.0520    6.4560    3.4870 C.3    55  LEU55       0.1561
     72  C         14.8060    6.1820    4.2840 C.2    55  LEU55       0.2260
     73  O         14.6330    6.7410    5.3480 O.2    55  LEU55      -0.2867
     74  CB        15.9530    7.8350    2.8540 C.3    55  LEU55       0.0270
     75  CG        17.2610    8.4100    2.3360 C.3    55  LEU55       0.0019
     76  CD1       16.9790    9.7050    1.5780 C.3    55  LEU55       0.0001
     77  CD2       18.2150    8.6400    3.5110 C.3    55  LEU55       0.0001
     78  N         20.1350    9.0090    6.5960 N.3    67  MET67      -0.1245
     79  CA        19.7920   10.3970    6.2580 C.3    67  MET67       0.1570
     80  C         20.8840   11.3830    6.6750 C.2    67  MET67       0.2261
     81  O         21.2740   12.2430    5.8960 O.2    67  MET67      -0.2867
     82  CB        18.4460   10.8050    6.8610 C.3    67  MET67       0.0387
     83  CG        17.9520   12.1790    6.4030 C.3    67  MET67       0.0595
     84  SD        16.1480   12.3330    6.3590 S.3    67  MET67      -0.1393
     85  CE        15.7420   11.4150    4.8810 C.3    67  MET67       0.0692
     86  N         23.9630   11.2700    4.4330 N.3    70  LEU70      -0.1245
     87  CA        23.8760   11.9420    3.1340 C.3    70  LEU70       0.1561
     88  C         24.0100   13.4660    3.1790 C.2    70  LEU70       0.2260
     89  O         24.4040   14.0690    2.1920 O.2    70  LEU70      -0.2867
     90  CB        22.5570   11.5690    2.4350 C.3    70  LEU70       0.0270
     91  CG        22.4500   10.0980    2.0750 C.3    70  LEU70       0.0019
     92  CD1       21.1240    9.8170    1.3750 C.3    70  LEU70       0.0001
     93  CD2       23.6350    9.6660    1.2040 C.3    70  LEU70       0.0001
     94  N          4.6570   10.5160    4.2170 N.3    98  ILE98      -0.1245
     95  CA         5.7060   11.3360    3.6430 C.3    98  ILE98       0.1561
     96  C          5.2170   12.7550    3.3680 C.2    98  ILE98       0.2260
     97  O          5.9620   13.7130    3.6070 O.2    98  ILE98      -0.2867
     98  CB         6.3520   10.7150    2.3800 C.3    98  ILE98       0.0252
     99  CG1        7.0120    9.3850    2.7180 C.3    98  ILE98       0.0019
    100  CG2        7.4310   11.6510    1.7490 C.3    98  ILE98       0.0019
    101  CD1        8.0350    9.3850    3.8590 C.3    98  ILE98       0.0001
    102  N          5.4060   14.4400    6.7330 N.3   101  LEU101     -0.1231
    103  CA         6.8250   14.6740    7.0160 C.3   101  LEU101      0.1693
    104  C          7.3430   15.8680    6.2050 C.2   101  LEU101      0.2591
    105  O          7.9580   16.7800    6.7720 O.2   101  LEU101     -0.2718
    106  CB         7.6470   13.4250    6.7150 C.3   101  LEU101      0.0284
    107  CG         9.1520   13.5340    6.7980 C.3   101  LEU101      0.0019
    108  CD1        9.5540   13.9040    8.1900 C.3   101  LEU101      0.0001
    109  CD2        9.8640   12.2250    6.3110 C.3   101  LEU101      0.0001
    110  N          7.0770   15.8640    4.8970 N.am  102  ALA102     -0.1980
    111  CA         7.3590   17.0090    4.0390 C.3   102  ALA102      0.1597
    112  C          6.7840   18.3190    4.5880 C.2   102  ALA102      0.2287
    113  O          7.4980   19.3320    4.6530 O.2   102  ALA102     -0.2864
    114  CB         6.8530   16.7620    2.6450 C.3   102  ALA102      0.0319
    115  N          8.9280   19.1980    7.7720 N.3   105  VAL105     -0.1245
    116  CA        10.2950   19.6160    7.4980 C.3   105  VAL105      0.1561
    117  C         10.3550   20.9830    6.8130 C.2   105  VAL105      0.2260
    118  O         11.1550   21.8530    7.2190 O.2   105  VAL105     -0.2867
    119  CB        11.0790   18.5670    6.6740 C.3   105  VAL105      0.0252
    120  CG1       12.4570   19.1000    6.2980 C.3   105  VAL105      0.0019
    121  CG2       11.2130   17.2850    7.4640 C.3   105  VAL105      0.0019
    122  N         14.9600   23.5180    2.4820 N.3   113  TRP113     -0.1227
    123  CA        14.0360   22.5510    1.8910 C.3   113  TRP113      0.1737
    124  C         14.2070   22.4180    0.3730 C.2   113  TRP113      0.2595
    125  O         14.3130   23.4140   -0.3280 O.2   113  TRP113     -0.2718
    126  CB        12.6000   22.9700    2.2110 C.3   113  TRP113      0.0564
    127  CG        11.5670   22.1850    1.4880 C.ar  113  TRP113      0.0003
    128  CD1       10.7760   22.6190    0.4700 C.ar  113  TRP113      0.0946
    129  CD2       11.2170   20.8220    1.7210 C.ar  113  TRP113      0.0152
    130  NE1        9.9470   21.6120    0.0590 N.ar  113  TRP113     -0.2442
    131  CE2       10.1870   20.4990    0.8170 C.ar  113  TRP113      0.0810
    132  CE3       11.6590   19.8460    2.6170 C.ar  113  TRP113      0.0012
    133  CZ2        9.5990   19.2290    0.7710 C.ar  113  TRP113      0.0191
    134  CZ3       11.0730   18.5980    2.5760 C.ar  113  TRP113      0.0001
    135  CH2       10.0600   18.2940    1.6460 C.ar  113  TRP113      0.0015
    136  N         14.2520   21.1810   -0.1200 N.am  114  PHE114     -0.1962
    137  CA        14.1360   20.9100   -1.5580 C.3   114  PHE114      0.1771
    138  C         13.7810   19.4390   -1.8200 C.2   114  PHE114      0.2619
    139  O         13.8990   18.6100   -0.9280 O.2   114  PHE114     -0.2715
    140  CB        15.4110   21.3280   -2.2990 C.3   114  PHE114      0.0574
    141  CG        16.3270   20.1940   -2.6600 C.ar  114  PHE114     -0.0200
    142  CD1       16.7010   19.2430   -1.7150 C.ar  114  PHE114     -0.0042
    143  CD2       16.8440   20.1030   -3.9480 C.ar  114  PHE114     -0.0042
    144  CE1       17.5640   18.2020   -2.0530 C.ar  114  PHE114     -0.0003
    145  CE2       17.7090   19.0840   -4.3020 C.ar  114  PHE114     -0.0003
    146  CZ        18.0730   18.1250   -3.3530 C.ar  114  PHE114     -0.0000
    147  N         13.3410   19.1480   -3.0460 N.am  115  VAL115     -0.1963
    148  CA        12.9770   17.7980   -3.4960 C.3   115  VAL115      0.1727
    149  C         13.4800   17.6110   -4.9430 C.2   115  VAL115      0.2616
    150  O         13.2970   18.5000   -5.7800 O.2   115  VAL115     -0.2715
    151  CB        11.4240   17.5920   -3.4250 C.3   115  VAL115      0.0290
    152  CG1       11.0100   16.2250   -3.9870 C.3   115  VAL115      0.0023
    153  CG2       10.9220   17.7210   -1.9970 C.3   115  VAL115      0.0023
    154  N         14.1520   16.4980   -5.2450 N.am  116  ILE116     -0.1977
    155  CA        14.6280   16.2620   -6.6200 C.3   116  ILE116      0.1596
    156  C         13.6140   15.4890   -7.4550 C.2   116  ILE116      0.2287
    157  O         13.0060   14.5140   -6.9980 O.2   116  ILE116     -0.2864
    158  CB        15.9660   15.4930   -6.6840 C.3   116  ILE116      0.0276
    159  CG1       17.0020   16.1240   -5.7550 C.3   116  ILE116      0.0022
    160  CG2       16.5030   15.5080   -8.1070 C.3   116  ILE116      0.0022
    161  CD1       18.4330   16.0080   -6.2450 C.3   116  ILE116      0.0001
@<TRIPOS>BOND
     1    18    19    2
     2    18    17    1
     3     8     9    1
     4    11    10    2
     5     9    10    1
     6     9    12    1
     7    10    16   am
     8    16    17    1
     9    17    20    1
    10    22    20    1
    11    31    29   ar
    12    31    33   ar
    13    34    33    1
    14    29    28   ar
    15     4     3    2
    16   160   158    1
    17     3     2    1
    18    33    32   ar
    19    20    21    1
    20    14    13    1
    21    12    13    1
    22   156   157    2
    23   156   155    1
    24     1     2    1
    25    13    15    1
    26    28    27    1
    27    28    30   ar
    28    32    30   ar
    29     2     5    1
    30   158   155    1
    31   158   159    1
    32    27    24    1
    33    49    48    1
    34   155   154    1
    35   161   159    1
    36    69    68   ar
    37    69    67   ar
    38    50    48    1
    39    24    23    1
    40    24    25    1
    41   150   149    2
    42     5     6    1
    43     5     7    1
    44    68    66   ar
    45    48    47    1
    46   154   149   am
    47    67    65   ar
    48   149   148    1
    49    26    25    2
    50    47    44    1
    51    25    35   am
    52   145   143   ar
    53   145   146   ar
    54    44    43    1
    55    44    45    1
    56    66    64   ar
    57   152   151    1
    58   143   141   ar
    59    35    36    1
    60    65    64   ar
    61   148   151    1
    62   148   147    1
    63   151   153    1
    64   146   144   ar
    65    64    63    1
    66   147   138   am
    67    46    45    2
    68    45    51   am
    69   141   140    1
    70   141   142   ar
    71    36    37    1
    72    36    39    1
    73    40    39    1
    74    40    41    1
    75   140   137    1
    76    59    60    1
    77   144   142   ar
    78    37    38    2
    79   138   137    1
    80   138   139    2
    81    51    52    1
    82    63    60    1
    83   137   136    1
    84    60    61    1
    85    41    42    1
    86    52    53    1
    87    52    55    1
    88    53    54    2
    89   125   124    2
    90   136   124   am
    91    61    62    2
    92   130   128   ar
    93   130   131   ar
    94   124   123    1
    95   128   127   ar
    96    55    56    1
    97   133   131   ar
    98   133   135   ar
    99    56    58    1
   100    56    57    1
   101   131   129   ar
   102    93    91    1
   103    92    91    1
   104   127   129   ar
   105   127   126    1
   106    76    75    1
   107   135   134   ar
   108   129   132   ar
   109   100    98    1
   110   123   126    1
   111   123   122    1
   112    91    90    1
   113    89    88    2
   114    75    74    1
   115    75    77    1
   116    98    99    1
   117    98    95    1
   118    90    87    1
   119    70    71    1
   120   134   132   ar
   121   114   111    1
   122    99   101    1
   123    74    71    1
   124    87    88    1
   125    87    86    1
   126    96    97    2
   127    96    95    1
   128    71    72    1
   129    95    94    1
   130   111   112    1
   131   111   110    1
   132    72    73    2
   133   112   113    2
   134    85    84    1
   135   110   104   am
   136    81    80    2
   137   104   105    2
   138   104   103    1
   139    79    78    1
   140    79    80    1
   141    79    82    1
   142   120   119    1
   143   109   107    1
   144    84    83    1
   145    83    82    1
   146   119   121    1
   147   119   116    1
   148   106   107    1
   149   106   103    1
   150   102   103    1
   151   107   108    1
   152   117   118    2
   153   117   116    1
   154   116   115    1
