@<TRIPOS>MOLECULE
tmp/3bfkB00.pdb
 175 170 0 0 0
SMALL
GASTEIGER

@<TRIPOS>ATOM
      1  N          5.3650    3.5550   53.2890 N.3    14  SER14      -0.1202
      2  CA         4.1760    4.3390   53.5970 C.3    14  SER14       0.2020
      3  C          3.9210    4.3720   55.1120 C.2    14  SER14       0.2619
      4  O          4.1320    3.3530   55.8040 O.2    14  SER14      -0.2717
      5  CB         2.9600    3.7590   52.8640 C.3    14  SER14       0.2103
      6  OG         1.8430    4.5940   53.0340 O.3    14  SER14      -0.2182
      7  N          3.5400    5.5580   55.5980 N.am   15  GLY15      -0.1942
      8  CA         3.1380    5.8180   56.9830 C.3    15  GLY15       0.2014
      9  C          4.2580    6.1680   57.9820 C.2    15  GLY15       0.2639
     10  O          3.9770    6.3180   59.1660 O.2    15  GLY15      -0.2714
     11  N          5.4900    6.3260   57.4980 N.am   16  VAL16      -0.1963
     12  CA         6.6700    6.5860   58.3520 C.3    16  VAL16       0.1727
     13  C          6.7780    8.0730   58.7620 C.2    16  VAL16       0.2617
     14  O          7.4550    8.4000   59.7580 O.2    16  VAL16      -0.2715
     15  CB         8.0130    6.0670   57.7170 C.3    16  VAL16       0.0290
     16  CG1        8.0330    4.4910   57.4730 C.3    16  VAL16       0.0023
     17  CG2        8.3710    6.8200   56.4310 C.3    16  VAL16       0.0023
     18  N          6.0880    8.9580   58.0180 N.am   17  GLY17      -0.1940
     19  CA         6.0460   10.4050   58.2950 C.3    17  GLY17       0.2014
     20  C          6.6860   11.3030   57.2360 C.2    17  GLY17       0.2639
     21  O          6.9880   12.4630   57.5210 O.2    17  GLY17      -0.2714
     22  N          6.8660   10.7960   56.0150 N.am   18  LYS18      -0.1963
     23  CA         7.5230   11.6000   54.9340 C.3    18  LYS18       0.1728
     24  C          6.7760   12.9180   54.6150 C.2    18  LYS18       0.2617
     25  O          7.3970   14.0250   54.5540 O.2    18  LYS18      -0.2715
     26  CB         7.7000   10.7780   53.6690 C.3    18  LYS18       0.0311
     27  CG         8.5320    9.4950   53.8180 C.3    18  LYS18       0.0038
     28  CD         8.7030    8.7280   52.4940 C.3    18  LYS18       0.0206
     29  CE         7.4020    8.2220   51.8370 C.3    18  LYS18       0.1093
     30  NZ         6.5410    7.3090   52.7190 N.3    18  LYS18      -0.1314
     31  N          5.4530   12.8290   54.4410 N.am   19  SER19      -0.1936
     32  CA         4.6510   14.0140   54.0920 C.3    19  SER19       0.2055
     33  C          4.6770   15.0410   55.2210 C.2    19  SER19       0.2643
     34  O          4.6830   16.2540   54.9540 O.2    19  SER19      -0.2714
     35  CB         3.2000   13.6410   53.6820 C.3    19  SER19       0.2130
     36  OG         2.3570   13.4630   54.8040 O.3    19  SER19      -0.2179
     37  N          4.7440   14.5790   56.4760 N.am   20  ASN20      -0.1971
     38  CA         4.8320   15.5090   57.6390 C.3    20  ASN20       0.1688
     39  C          6.2200   16.1210   57.9190 C.2    20  ASN20       0.2292
     40  O          6.3230   17.2680   58.3990 O.2    20  ASN20      -0.2864
     41  CB         4.2020   14.8840   58.8990 C.3    20  ASN20       0.1181
     42  CG         2.6910   15.0120   58.8900 C.2    20  ASN20       0.2629
     43  OD1        2.1610   16.1020   59.0760 O.2    20  ASN20      -0.2716
     44  ND2        1.9950   13.9300   58.6040 N.am   20  ASN20      -0.0877
     45  N          1.5880   20.3880   60.4460 N.3    30  PHE30      -0.1227
     46  CA         1.5400   18.9450   60.7280 C.3    30  PHE30       0.1736
     47  C          0.0930   18.4480   60.5980 C.2    30  PHE30       0.2595
     48  O         -0.8490   19.1930   60.9190 O.2    30  PHE30      -0.2718
     49  CB         2.1070   18.6620   62.1280 C.3    30  PHE30       0.0547
     50  CG         2.1490   17.1930   62.5040 C.ar   30  PHE30      -0.0202
     51  CD1        3.2310   16.3970   62.1380 C.ar   30  PHE30      -0.0042
     52  CD2        1.1120   16.6070   63.2210 C.ar   30  PHE30      -0.0042
     53  CE1        3.2790   15.0700   62.4690 C.ar   30  PHE30      -0.0003
     54  CE2        1.1510   15.2530   63.5580 C.ar   30  PHE30      -0.0003
     55  CZ         2.2450   14.4880   63.1880 C.ar   30  PHE30      -0.0000
     56  N         -0.0790   17.2140   60.1170 N.am   31  ASN31      -0.1960
     57  CA        -1.3980   16.6010   59.9170 C.3    31  ASN31       0.1819
     58  C         -1.4990   15.2470   60.6390 C.2    31  ASN31       0.2621
     59  O         -0.7210   14.3120   60.3800 O.2    31  ASN31      -0.2715
     60  CB        -1.6870   16.4520   58.4230 C.3    31  ASN31       0.1195
     61  CG        -3.1520   16.1050   58.1170 C.2    31  ASN31       0.2630
     62  OD1       -4.0190   16.0980   59.0000 O.2    31  ASN31      -0.2716
     63  ND2       -3.4240   15.8030   56.8500 N.am   31  ASN31      -0.0877
     64  N         -2.4590   15.1550   61.5550 N.am   32  LEU32      -0.1963
     65  CA        -2.6810   13.9360   62.3430 C.3    32  LEU32       0.1728
     66  C         -3.2740   12.7650   61.5300 C.2    32  LEU32       0.2616
     67  O         -3.1130   11.6110   61.9030 O.2    32  LEU32      -0.2715
     68  CB        -3.5660   14.2510   63.5610 C.3    32  LEU32       0.0311
     69  CG        -2.8950   15.1030   64.6500 C.3    32  LEU32       0.0022
     70  CD1       -3.9150   15.8480   65.5460 C.3    32  LEU32       0.0001
     71  CD2       -1.9430   14.2620   65.4980 C.3    32  LEU32       0.0001
     72  N         -3.9440   13.0500   60.4170 N.am   33  GLU33      -0.1963
     73  CA        -4.5150   11.9770   59.5940 C.3    33  GLU33       0.1733
     74  C         -3.4390   11.3590   58.7080 C.2    33  GLU33       0.2617
     75  O         -2.5190   12.0440   58.2670 O.2    33  GLU33      -0.2715
     76  CB        -5.6940   12.4820   58.7540 C.3    33  GLU33       0.0429
     77  CG        -6.8240   13.1250   59.5630 C.3    33  GLU33       0.1163
     78  CD        -7.5860   12.1460   60.4550 C.2    33  GLU33       0.3649
     79  OE1       -7.4830   12.2510   61.7050 O.co2  33  GLU33      -0.2457
     80  OE2       -8.3050   11.2810   59.9070 O.co2  33  GLU33      -0.2457
     81  N         -3.5380   10.0570   58.4660 N.am   34  SER34      -0.1936
     82  CA        -2.5600    9.3720   57.6210 C.3    34  SER34       0.2055
     83  C         -2.9280    9.5090   56.1430 C.2    34  SER34       0.2643
     84  O         -4.0800    9.7640   55.7980 O.2    34  SER34      -0.2714
     85  CB        -2.4460    7.8960   58.0160 C.3    34  SER34       0.2130
     86  OG        -1.2950    7.2990   57.4310 O.3    34  SER34      -0.2179
     87  N         -1.9250    9.3910   55.2810 N.am   35  LYS35      -0.1963
     88  CA        -2.1380    9.3260   53.8420 C.3    35  LYS35       0.1728
     89  C         -2.6870   10.6090   53.2370 C.2    35  LYS35       0.2617
     90  O         -3.6510   10.5640   52.4780 O.2    35  LYS35      -0.2715
     91  CB        -3.1080    8.1560   53.5210 C.3    35  LYS35       0.0311
     92  CG        -2.5550    6.7840   53.7260 C.3    35  LYS35       0.0038
     93  CD        -1.4840    6.4490   52.7080 C.3    35  LYS35       0.0206
     94  CE        -2.0270    6.3570   51.2910 C.3    35  LYS35       0.1093
     95  NZ        -0.9810    5.7760   50.3940 N.3    35  LYS35      -0.1314
     96  N         -2.0660   11.7460   53.5470 N.am   36  SER36      -0.1936
     97  CA        -2.5290   13.0190   52.9890 C.3    36  SER36       0.2055
     98  C         -1.9860   13.3070   51.5740 C.2    36  SER36       0.2643
     99  O         -2.5810   14.0870   50.8370 O.2    36  SER36      -0.2714
    100  CB        -2.1800   14.1690   53.9290 C.3    36  SER36       0.2130
    101  OG        -0.8010   14.1740   54.2180 O.3    36  SER36      -0.2179
    102  N         -0.8600   12.6860   51.2020 N.am   37  THR37      -0.1950
    103  CA        -0.3170   12.8170   49.8320 C.3    37  THR37       0.1897
    104  C         -1.2190   12.1450   48.7890 C.2    37  THR37       0.2313
    105  O         -1.5350   10.9490   48.9190 O.2    37  THR37      -0.2863
    106  CB         1.0700   12.1430   49.6900 C.3    37  THR37       0.1794
    107  OG1        1.9610   12.6430   50.6830 O.3    37  THR37      -0.2208
    108  CG2        1.6680   12.4090   48.3010 C.3    37  THR37       0.0378
    109  N          7.9100   13.9590   47.9610 N.3    61  ASP61      -0.1225
    110  CA         7.5140   12.6390   48.4730 C.3    61  ASP61       0.1805
    111  C          6.4150   12.0110   47.6040 C.2    61  ASP61       0.2598
    112  O          5.7150   12.7190   46.8640 O.2    61  ASP61      -0.2718
    113  CB         7.1360   12.6680   49.9680 C.3    61  ASP61       0.1424
    114  CG         5.7790   13.3150   50.2650 C.2    61  ASP61       0.3668
    115  OD1        4.7400   12.6220   50.2030 O.co2  61  ASP61      -0.2456
    116  OD2        5.7650   14.4950   50.6590 O.co2  61  ASP61      -0.2456
    117  N          6.3020   10.6860   47.6650 N.am   62  THR62      -0.1953
    118  CA         5.2600    9.9430   46.9330 C.3    62  THR62       0.1897
    119  C          4.3760    9.1200   47.8820 C.2    62  THR62       0.2313
    120  O          4.8140    8.7370   48.9670 O.2    62  THR62      -0.2863
    121  CB         5.8610    8.9500   45.9170 C.3    62  THR62       0.1794
    122  OG1        6.6560    7.9610   46.6050 O.3    62  THR62      -0.2208
    123  CG2        6.7190    9.6760   44.8990 C.3    62  THR62       0.0378
    124  N         12.2630    8.5720   62.2200 N.3   119  ASN119     -0.1225
    125  CA        11.1890    9.4770   62.6470 C.3   119  ASN119      0.1785
    126  C         10.2490    8.8760   63.7530 C.2   119  ASN119      0.2597
    127  O         10.2910    7.6570   64.0390 O.2   119  ASN119     -0.2718
    128  CB        10.3800    9.9390   61.4150 C.3   119  ASN119      0.1169
    129  CG         9.4320   11.0980   61.7280 C.2   119  ASN119      0.2627
    130  OD1        9.8040   12.0770   62.3960 O.2   119  ASN119     -0.2716
    131  ND2        8.1970   10.9840   61.2550 N.am  119  ASN119     -0.0877
    132  N          9.4470    9.7660   64.3630 N.am  120  LYS120     -0.1980
    133  CA         8.4990    9.4700   65.4730 C.3   120  LYS120      0.1596
    134  C          9.2400    9.1900   66.7730 C.2   120  LYS120      0.2287
    135  O          8.8040    8.3500   67.5880 O.2   120  LYS120     -0.2864
    136  CB         7.5540    8.3230   65.1360 C.3   120  LYS120      0.0298
    137  CG         6.8490    8.4720   63.8270 C.3   120  LYS120      0.0038
    138  CD         5.6430    7.5880   63.7150 C.3   120  LYS120      0.0206
    139  CE         5.1150    7.5350   62.2690 C.3   120  LYS120      0.1093
    140  NZ         3.8900    6.6710   62.1140 N.3   120  LYS120     -0.1314
    141  N          9.2480   10.9130   69.3630 N.3   122  ASP122     -0.1225
    142  CA         8.3790   11.2780   70.4970 C.3   122  ASP122      0.1805
    143  C          7.6430   10.0790   71.1270 C.2   122  ASP122      0.2597
    144  O          7.1690   10.1950   72.2660 O.2   122  ASP122     -0.2718
    145  CB         7.3450   12.3440   70.0850 C.3   122  ASP122      0.1424
    146  CG         6.4480   11.8810   68.9480 C.2   122  ASP122      0.3668
    147  OD1        6.9400   11.8140   67.7910 O.co2 122  ASP122     -0.2456
    148  OD2        5.2550   11.5890   69.2080 O.co2 122  ASP122     -0.2456
    149  N          7.5210    8.9690   70.3910 N.am  123  LEU123     -0.1979
    150  CA         6.8100    7.7600   70.8760 C.3   123  LEU123      0.1596
    151  C          7.7580    6.8380   71.6430 C.2   123  LEU123      0.2287
    152  O          7.9950    5.6710   71.2650 O.2   123  LEU123     -0.2864
    153  CB         6.1220    7.0350   69.7130 C.3   123  LEU123      0.0297
    154  CG         5.0200    7.8050   68.9800 C.3   123  LEU123      0.0022
    155  CD1        4.4850    7.0140   67.7890 C.3   123  LEU123      0.0001
    156  CD2        3.8890    8.1880   69.9240 C.3   123  LEU123      0.0001
    157  N         11.3300   13.9870   65.2530 N.3   149  SER149     -0.1202
    158  CA         9.8750   13.9830   65.4230 C.3   149  SER149      0.2020
    159  C          9.2320   15.1110   64.6140 C.2   149  SER149      0.2619
    160  O          9.2820   16.2830   65.0160 O.2   149  SER149     -0.2717
    161  CB         9.4730   14.1270   66.8910 C.3   149  SER149      0.2103
    162  OG         8.0570   14.2340   67.0170 O.3   149  SER149     -0.2182
    163  N          8.6200   14.7780   63.4950 N.am  150  ALA150     -0.1965
    164  CA         7.8050   15.7750   62.7920 C.3   150  ALA150      0.1728
    165  C          6.6840   16.3480   63.6770 C.2   150  ALA150      0.2616
    166  O          6.3280   17.5370   63.5320 O.2   150  ALA150     -0.2715
    167  CB         7.2420   15.2220   61.4870 C.3   150  ALA150      0.0334
    168  N          6.1250   15.5260   64.5690 N.am  151  LEU151     -0.1977
    169  CA         5.0570   15.9800   65.4920 C.3   151  LEU151      0.1596
    170  C          5.5040   17.0960   66.4600 C.2   151  LEU151      0.2287
    171  O          4.8240   18.1260   66.5530 O.2   151  LEU151     -0.2864
    172  CB         4.4540   14.8050   66.2760 C.3   151  LEU151      0.0297
    173  CG         3.3010   15.1710   67.2410 C.3   151  LEU151      0.0022
    174  CD1        2.0860   15.7220   66.5060 C.3   151  LEU151      0.0001
    175  CD2        2.8970   13.9680   68.0570 C.3   151  LEU151      0.0001
@<TRIPOS>BOND
     1   123   121    1
     2   121   122    1
     3   121   118    1
     4   112   111    2
     5   118   117    1
     6   118   119    1
     7   111   117   am
     8   111   110    1
     9   119   120    2
    10   109   110    1
    11   108   106    1
    12   110   113    1
    13   104   105    2
    14   104   103    1
    15   106   103    1
    16   106   107    1
    17   103   102    1
    18   113   114    1
    19   115   114   ar
    20   114   116   ar
    21    95    94    1
    22    99    98    2
    23   102    98   am
    24    94    93    1
    25    98    97    1
    26    29    28    1
    27    29    30    1
    28    90    89    2
    29    28    27    1
    30    93    92    1
    31     5     6    1
    32     5     2    1
    33    97    96    1
    34    97   100    1
    35    89    96   am
    36    89    88    1
    37     1     2    1
    38    91    92    1
    39    91    88    1
    40     2     3    1
    41    26    27    1
    42    26    23    1
    43    35    32    1
    44    35    36    1
    45    88    87    1
    46   100   101    1
    47    32    31    1
    48    32    33    1
    49    31    24   am
    50    25    24    2
    51    24    23    1
    52    23    22    1
    53    34    33    2
    54     3     7   am
    55     3     4    2
    56    33    37   am
    57    87    83   am
    58     7     8    1
    59    84    83    2
    60    22    20   am
    61    83    82    1
    62    17    15    1
    63    37    38    1
    64    63    61   am
    65     8     9    1
    66    20    21    2
    67    20    19    1
    68    86    85    1
    69    16    15    1
    70    11     9   am
    71    11    12    1
    72    82    85    1
    73    82    81    1
    74    38    39    1
    75    38    41    1
    76    15    12    1
    77    39    40    2
    78     9    10    2
    79    18    19    1
    80    18    13   am
    81    61    60    1
    82    61    62    2
    83    75    74    2
    84    12    13    1
    85    60    57    1
    86    81    74   am
    87    44    42   am
    88    74    73    1
    89    76    77    1
    90    76    73    1
    91    13    14    2
    92    42    41    1
    93    42    43    2
    94    77    78    1
    95    73    72    1
    96    80    78   ar
    97    57    56    1
    98    57    58    1
    99    56    47   am
   100    59    58    2
   101    72    66   am
   102    45    46    1
   103    78    79   ar
   104    47    46    1
   105    47    48    2
   106    58    64   am
   107    46    49    1
   108   131   129   am
   109   128   129    1
   110   128   125    1
   111   167   164    1
   112    66    67    2
   113    66    65    1
   114    64    65    1
   115   129   130    2
   116   140   139    1
   117    49    50    1
   118    51    53   ar
   119    51    50   ar
   120   124   125    1
   121   139   138    1
   122    65    68    1
   123    53    55   ar
   124    50    52   ar
   125   125   126    1
   126   164   163    1
   127   164   165    1
   128    55    54   ar
   129    52    54   ar
   130   163   159   am
   131   166   165    2
   132    68    69    1
   133   165   168   am
   134   138   137    1
   135   126   127    2
   136   126   132   am
   137   137   136    1
   138   132   133    1
   139   168   169    1
   140   159   160    2
   141   159   158    1
   142    69    71    1
   143    69    70    1
   144   136   133    1
   145   157   158    1
   146   158   161    1
   147   133   134    1
   148   169   172    1
   149   169   170    1
   150   172   173    1
   151   170   171    2
   152   174   173    1
   153   134   135    2
   154   161   162    1
   155   173   175    1
   156   155   154    1
   157   147   146   ar
   158   146   148   ar
   159   146   145    1
   160   154   153    1
   161   154   156    1
   162   141   142    1
   163   153   150    1
   164   145   142    1
   165   149   150    1
   166   149   143   am
   167   142   143    1
   168   150   151    1
   169   143   144    2
   170   152   151    2
