@<TRIPOS>MOLECULE
tmp/3bfuB00.pdb
 137 131 0 0 0
SMALL
GASTEIGER

@<TRIPOS>ATOM
      1  N         37.3860   -5.0190   15.4660 N.3    10  GLU10      -0.1245
      2  CA        38.2980   -3.9140   15.2250 C.3    10  GLU10       0.1567
      3  C         37.7080   -3.0540   14.1140 C.2    10  GLU10       0.2260
      4  O         37.4970   -3.5250   13.0000 O.2    10  GLU10      -0.2867
      5  CB        39.6620   -4.4590   14.7890 C.3    10  GLU10       0.0388
      6  CG        40.7130   -3.3870   14.5360 C.3    10  GLU10       0.1160
      7  CD        41.3050   -2.8390   15.8210 C.2    10  GLU10       0.3649
      8  OE1       42.2970   -3.4160   16.3210 O.co2  10  GLU10      -0.2457
      9  OE2       40.7660   -1.8390   16.3350 O.co2  10  GLU10      -0.2457
     10  N         45.0610  -10.5640   18.5910 N.3    58  TYR58      -0.1241
     11  CA        45.4790  -10.9320   17.2520 C.3    58  TYR58       0.1605
     12  C         46.2070  -12.2690   17.2610 C.2    58  TYR58       0.2264
     13  O         45.8080  -13.2010   16.5650 O.2    58  TYR58      -0.2867
     14  CB        46.3670   -9.8280   16.6670 C.3    58  TYR58       0.0534
     15  CG        45.5720   -8.6290   16.2080 C.ar   58  TYR58      -0.0201
     16  CD1       44.9790   -8.6150   14.9480 C.ar   58  TYR58      -0.0009
     17  CD2       45.3710   -7.5310   17.0490 C.ar   58  TYR58      -0.0009
     18  CE1       44.2000   -7.5410   14.5320 C.ar   58  TYR58       0.0417
     19  CE2       44.5940   -6.4500   16.6420 C.ar   58  TYR58       0.0417
     20  CZ        44.0120   -6.4680   15.3790 C.ar   58  TYR58       0.1957
     21  OH        43.2340   -5.4220   14.9560 O.3    58  TYR58      -0.2866
     22  N         42.3500   -8.0430   10.0450 N.3    86  PRO86      -0.2102
     23  CA        43.5950   -7.3090    9.7860 C.3    86  PRO86       0.1504
     24  C         44.7450   -7.9580   10.5610 C.2    86  PRO86       0.2576
     25  O         45.3320   -7.3600   11.4650 O.2    86  PRO86      -0.2718
     26  CB        43.2680   -5.9000   10.2720 C.3    86  PRO86       0.0282
     27  CG        42.3430   -6.1720   11.4500 C.3    86  PRO86       0.0208
     28  CD        41.4240   -7.2400   10.8710 C.3    86  PRO86       0.0893
     29  N         45.0440   -9.2000   10.1940 N.am   87  LEU87      -0.1966
     30  CA        46.1000   -9.9670   10.8350 C.3    87  LEU87       0.1728
     31  C         47.3900   -9.7630   10.0500 C.2    87  LEU87       0.2616
     32  O         47.4960  -10.1770    8.8990 O.2    87  LEU87      -0.2715
     33  CB        45.7210  -11.4510   10.8540 C.3    87  LEU87       0.0311
     34  CG        46.6890  -12.4150   11.5480 C.3    87  LEU87       0.0022
     35  CD1       46.8690  -12.0180   13.0060 C.3    87  LEU87       0.0001
     36  CD2       46.1510  -13.8330   11.4430 C.3    87  LEU87       0.0001
     37  N         48.3640   -9.1180   10.6850 N.am   88  THR88      -0.1951
     38  CA        49.6570   -8.8350   10.0660 C.3    88  THR88       0.1897
     39  C         50.5060  -10.0820    9.7730 C.2    88  THR88       0.2313
     40  O         50.6700  -10.9640   10.6240 O.2    88  THR88      -0.2863
     41  CB        50.4860   -7.8890   10.9560 C.3    88  THR88       0.1794
     42  OG1       49.7010   -6.7340   11.2910 O.3    88  THR88      -0.2208
     43  CG2       51.7520   -7.4490   10.2290 C.3    88  THR88       0.0378
     44  N         54.6390  -15.8570   12.8730 N.3    93  ARG93      -0.1245
     45  CA        53.3270  -16.4210   12.5880 C.3    93  ARG93       0.1563
     46  C         53.3960  -17.3470   11.3780 C.2    93  ARG93       0.2260
     47  O         52.7650  -18.4030   11.3600 O.2    93  ARG93      -0.2867
     48  CB        52.3030  -15.3030   12.3590 C.3    93  ARG93       0.0307
     49  CG        51.9210  -14.5660   13.6360 C.3    93  ARG93       0.0489
     50  CD        51.1600  -13.2820   13.3430 C.3    93  ARG93       0.2205
     51  NE        50.7360  -12.6130   14.5700 N.pl3  93  ARG93      -0.0865
     52  CZ        50.1710  -11.4120   14.6060 C.cat  93  ARG93       0.5346
     53  NH1       49.9670  -10.7430   13.4760 N.pl3  93  ARG93       0.1354
     54  NH2       49.7940  -10.8870   15.7660 N.pl3  93  ARG93       0.1354
     55  N         49.8450   -1.3210   21.2940 N.3   135  LEU135     -0.1245
     56  CA        48.8550   -2.2840   21.7480 C.3   135  LEU135      0.1561
     57  C         49.6430   -3.2190   22.6720 C.2   135  LEU135      0.2260
     58  O         50.8330   -3.4440   22.4470 O.2   135  LEU135     -0.2867
     59  CB        48.2900   -3.0440   20.5470 C.3   135  LEU135      0.0270
     60  CG        47.1940   -4.0840   20.7830 C.3   135  LEU135      0.0019
     61  CD1       45.9830   -3.4410   21.4610 C.3   135  LEU135      0.0001
     62  CD2       46.7990   -4.6970   19.4410 C.3   135  LEU135      0.0001
     63  N         49.9130   -6.1930   22.8220 N.3   137  SER137     -0.1202
     64  CA        50.3710   -7.4060   22.1520 C.3   137  SER137      0.2020
     65  C         50.1640   -7.2290   20.6490 C.2   137  SER137      0.2619
     66  O         49.5450   -6.2560   20.2170 O.2   137  SER137     -0.2717
     67  CB        49.6090   -8.6420   22.6550 C.3   137  SER137      0.2103
     68  OG        48.2520   -8.6290   22.2530 O.3   137  SER137     -0.2182
     69  N         50.6890   -8.1550   19.8540 N.am  138  GLY138     -0.1942
     70  CA        50.5350   -8.0410   18.4160 C.3   138  GLY138      0.2014
     71  C         51.8320   -7.6890   17.7180 C.2   138  GLY138      0.2640
     72  O         52.8650   -7.5080   18.3640 O.2   138  GLY138     -0.2714
     73  N         51.7790   -7.5630   16.3960 N.am  139  SER139     -0.1935
     74  CA        52.9720   -7.2720   15.6110 C.3   139  SER139      0.2055
     75  C         53.6730   -5.9360   15.8510 C.2   139  SER139      0.2643
     76  O         54.8750   -5.8340   15.6290 O.2   139  SER139     -0.2714
     77  CB        52.6540   -7.4250   14.1170 C.3   139  SER139      0.2130
     78  OG        51.5210   -6.6530   13.7610 O.3   139  SER139     -0.2179
     79  N         52.9610   -4.9120   16.3050 N.am  140  THR140     -0.1950
     80  CA        53.6430   -3.6410   16.5260 C.3   140  THR140      0.1897
     81  C         54.5020   -3.7250   17.7840 C.2   140  THR140      0.2313
     82  O         55.6480   -3.2740   17.7950 O.2   140  THR140     -0.2863
     83  CB        52.6540   -2.4620   16.6540 C.3   140  THR140      0.1794
     84  OG1       51.8400   -2.3840   15.4790 O.3   140  THR140     -0.2208
     85  CG2       53.4110   -1.1560   16.7760 C.3   140  THR140      0.0378
     86  N         42.8370   -1.2630   20.3610 N.3   171  THR171     -0.1218
     87  CA        43.1340   -0.0800   19.5720 C.3   171  THR171      0.1862
     88  C         42.2310    1.0600   20.0480 C.2   171  THR171      0.2287
     89  O         42.6630    2.2090   20.1380 O.2   171  THR171     -0.2866
     90  CB        42.8730   -0.3360   18.0780 C.3   171  THR171      0.1770
     91  OG1       43.6030   -1.4940   17.6590 O.3   171  THR171     -0.2211
     92  CG2       43.3290    0.8480   17.2550 C.3   171  THR171      0.0375
     93  N         50.1740    7.4990   20.0990 N.3   187  TYR187     -0.1227
     94  CA        49.9620    6.0740   19.9190 C.3   187  TYR187      0.1736
     95  C         50.5950    5.5080   18.6520 C.2   187  TYR187      0.2595
     96  O         50.4630    6.0720   17.5640 O.2   187  TYR187     -0.2718
     97  CB        48.4530    5.7990   19.9290 C.3   187  TYR187      0.0548
     98  CG        48.0740    4.3350   19.9680 C.ar  187  TYR187     -0.0200
     99  CD1       48.7070    3.4540   20.8430 C.ar  187  TYR187     -0.0009
    100  CD2       47.0510    3.8410   19.1590 C.ar  187  TYR187     -0.0009
    101  CE1       48.3290    2.1120   20.9170 C.ar  187  TYR187      0.0417
    102  CE2       46.6600    2.5030   19.2260 C.ar  187  TYR187      0.0417
    103  CZ        47.3020    1.6440   20.1080 C.ar  187  TYR187      0.1957
    104  OH        46.9000    0.3300   20.2050 O.3   187  TYR187     -0.2866
    105  N         51.2920    4.3880   18.8070 N.am  188  LEU188     -0.1966
    106  CA        51.9400    3.7220   17.6890 C.3   188  LEU188      0.1728
    107  C         51.0410    2.5800   17.2250 C.2   188  LEU188      0.2616
    108  O         50.8540    1.5970   17.9400 O.2   188  LEU188     -0.2715
    109  CB        53.3010    3.1880   18.1360 C.3   188  LEU188      0.0311
    110  CG        54.3570    4.2650   18.4000 C.3   188  LEU188      0.0022
    111  CD1       55.3520    3.7830   19.4420 C.3   188  LEU188      0.0001
    112  CD2       55.0570    4.5960   17.0930 C.3   188  LEU188      0.0001
    113  N         50.4660    2.7210   16.0350 N.am  189  LEU189     -0.1963
    114  CA        49.5780    1.6950   15.5060 C.3   189  LEU189      0.1728
    115  C         49.7620    1.5950   14.0020 C.2   189  LEU189      0.2616
    116  O         50.4480    2.4220   13.3980 O.2   189  LEU189     -0.2715
    117  CB        48.1180    2.0260   15.8340 C.3   189  LEU189      0.0311
    118  CG        47.4320    3.1510   15.0540 C.3   189  LEU189      0.0022
    119  CD1       45.9600    3.1940   15.4280 C.3   189  LEU189      0.0001
    120  CD2       48.0880    4.4860   15.3570 C.3   189  LEU189      0.0001
    121  N         49.1470    0.5870   13.3930 N.am  190  GLU190     -0.1977
    122  CA        49.2940    0.4040   11.9610 C.3   190  GLU190      0.1602
    123  C         48.5700    1.5100   11.2070 C.2   190  GLU190      0.2287
    124  O         47.4830    1.9360   11.5980 O.2   190  GLU190     -0.2864
    125  CB        48.8040   -0.9900   11.5650 C.3   190  GLU190      0.0415
    126  CG        49.5030   -2.0780   12.3790 C.3   190  GLU190      0.1163
    127  CD        49.1030   -3.4780   11.9770 C.2   190  GLU190      0.3649
    128  OE1       47.9040   -3.6940   11.7000 O.co2 190  GLU190     -0.2457
    129  OE2       49.9830   -4.3650   11.9540 O.co2 190  GLU190     -0.2457
    130  N         44.6130    1.5810   10.5500 N.3   193  MET193     -0.1245
    131  CA        43.7190    2.0000   11.6160 C.3   193  MET193      0.1570
    132  C         43.8670    3.5040   11.8060 C.2   193  MET193      0.2261
    133  O         42.8870    4.2140   12.0220 O.2   193  MET193     -0.2867
    134  CB        44.0570    1.2780   12.9290 C.3   193  MET193      0.0387
    135  CG        43.5750   -0.1770   12.9990 C.3   193  MET193      0.0595
    136  SD        44.4650   -1.2660   11.8870 S.3   193  MET193     -0.1393
    137  CE        44.1620   -2.8950   12.6440 C.3   193  MET193      0.0692
@<TRIPOS>BOND
     1    32    31    2
     2    39    38    1
     3    39    40    2
     4    23    22    1
     5    23    26    1
     6    23    24    1
     7    22    28    1
     8    31    37   am
     9    31    30    1
    10    38    37    1
    11    38    41    1
    12    29    24   am
    13    29    30    1
    14    43    41    1
    15    26    27    1
    16   130   131    1
    17    24    25    2
    18    30    33    1
    19    33    34    1
    20    28    27    1
    21    41    42    1
    22   123   124    2
    23   123   122    1
    24    47    46    2
    25    46    45    1
    26    36    34    1
    27    34    35    1
    28   125   122    1
    29   125   126    1
    30   131   132    1
    31   131   134    1
    32   128   127   ar
    33   132   133    2
    34   136   137    1
    35   136   135    1
    36   129   127   ar
    37   122   121    1
    38   127   126    1
    39    48    45    1
    40    48    49    1
    41    45    44    1
    42   134   135    1
    43     4     3    2
    44    50    49    1
    45    50    51    1
    46   121   115   am
    47   116   115    2
    48    53    52    1
    49    78    77    1
    50   115   114    1
    51     3     2    1
    52    77    74    1
    53    18    16   ar
    54    18    20   ar
    55     6     5    1
    56     6     7    1
    57    51    52    2
    58    52    54    1
    59     5     2    1
    60    16    15   ar
    61    21    20    1
    62   118   120    1
    63   118   119    1
    64   118   117    1
    65     2     1    1
    66    20    19   ar
    67    84    83    1
    68   114   117    1
    69   114   113    1
    70    74    75    1
    71    74    73    1
    72    76    75    2
    73     7     8   ar
    74     7     9   ar
    75    75    79   am
    76   113   107   am
    77    15    14    1
    78    15    17   ar
    79    79    80    1
    80    73    71   am
    81    80    83    1
    82    80    81    1
    83    13    12    2
    84    19    17   ar
    85    83    85    1
    86    14    11    1
    87   112   110    1
    88   107   106    1
    89   107   108    2
    90    11    12    1
    91    11    10    1
    92    92    90    1
    93    96    95    2
    94    91    90    1
    95   106   109    1
    96   106   105    1
    97    71    72    2
    98    71    70    1
    99    81    82    2
   100    90    87    1
   101   109   110    1
   102   110   111    1
   103    70    69    1
   104    95   105   am
   105    95    94    1
   106   100   102   ar
   107   100    98   ar
   108   102   103   ar
   109    62    60    1
   110    87    88    1
   111    87    86    1
   112    69    65   am
   113    94    97    1
   114    94    93    1
   115    97    98    1
   116    98    99   ar
   117    88    89    2
   118   103   104    1
   119   103   101   ar
   120    66    65    2
   121    59    60    1
   122    59    56    1
   123    65    64    1
   124    60    61    1
   125    99   101   ar
   126    55    56    1
   127    56    57    1
   128    64    67    1
   129    64    63    1
   130    68    67    1
   131    58    57    2
