@<TRIPOS>MOLECULE
tmp/3bfxA00.pdb
 207 200 0 0 0
SMALL
GASTEIGER

@<TRIPOS>ATOM
      1  N          5.8260   -3.0910   15.4990 N.3    37  PRO37      -0.2102
      2  CA         6.7630   -4.1740   15.8590 C.3    37  PRO37       0.1504
      3  C          8.2120   -3.8080   15.5670 C.2    37  PRO37       0.2575
      4  O          8.5340   -3.2560   14.4920 O.2    37  PRO37      -0.2718
      5  CB         6.3090   -5.3620   14.9680 C.3    37  PRO37       0.0282
      6  CG         4.8750   -5.0440   14.6380 C.3    37  PRO37       0.0208
      7  CD         4.7610   -3.5530   14.5810 C.3    37  PRO37       0.0893
      8  N          9.0700   -4.1150   16.5390 N.am   38  LYS38      -0.1980
      9  CA        10.5240   -3.9540   16.4630 C.3    38  LYS38       0.1596
     10  C         11.0090   -2.5230   16.7450 C.2    38  LYS38       0.2287
     11  O         12.1920   -2.2710   16.6330 O.2    38  LYS38      -0.2864
     12  CB        11.0940   -4.4230   15.1160 C.3    38  LYS38       0.0298
     13  CG        10.6330   -5.8280   14.6230 C.3    38  LYS38       0.0038
     14  CD        10.4430   -6.8680   15.7160 C.3    38  LYS38       0.0206
     15  CE        11.7860   -7.2160   16.3160 C.3    38  LYS38       0.1093
     16  NZ        11.5820   -8.1040   17.5070 N.3    38  LYS38      -0.1314
     17  N         10.9030   -1.0260   19.6350 N.3    40  GLY40      -0.1210
     18  CA        11.4610   -0.9250   21.0010 C.3    40  GLY40       0.1956
     19  C         10.5330   -1.3270   22.1350 C.2    40  GLY40       0.2613
     20  O         10.7320   -0.8690   23.2600 O.2    40  GLY40      -0.2717
     21  N          9.5530   -2.1900   21.8540 N.am   41  THR41      -0.1938
     22  CA         8.5690   -2.6100   22.8690 C.3    41  THR41       0.2028
     23  C          9.2300   -3.2210   24.1210 C.2    41  THR41       0.2643
     24  O          8.9300   -2.8170   25.2450 O.2    41  THR41      -0.2714
     25  CB         7.6070   -3.6820   22.2870 C.3    41  THR41       0.1808
     26  OG1        7.2670   -3.3320   20.9190 O.3    41  THR41      -0.2208
     27  CG2        6.3910   -3.7510   23.1500 C.3    41  THR41       0.0379
     28  N         10.0910   -4.2140   23.9210 N.am   42  THR42      -0.1936
     29  CA        10.7690   -4.9130   25.0350 C.3    42  THR42       0.2028
     30  C         11.5490   -3.9300   25.9290 C.2    42  THR42       0.2642
     31  O         11.4110   -3.9310   27.1720 O.2    42  THR42      -0.2714
     32  CB        11.6660   -6.0370   24.4960 C.3    42  THR42       0.1808
     33  OG1       10.8630   -6.9490   23.7170 O.3    42  THR42      -0.2208
     34  CG2       12.3710   -6.8200   25.6370 C.3    42  THR42       0.0379
     35  N         12.3140   -3.0540   25.2760 N.am   43  TRP43      -0.1973
     36  CA        13.0660   -2.0000   25.9530 C.3    43  TRP43       0.1640
     37  C         12.1720   -1.0390   26.7650 C.2    43  TRP43       0.2290
     38  O         12.4020   -0.8500   27.9720 O.2    43  TRP43      -0.2864
     39  CB        13.8840   -1.2270   24.9220 C.3    43  TRP43       0.0576
     40  CG        14.9820   -0.3810   25.4650 C.ar   43  TRP43       0.0006
     41  CD1       15.5220   -0.3950   26.7300 C.ar   43  TRP43       0.0946
     42  CD2       15.7570    0.5460   24.6980 C.ar   43  TRP43       0.0152
     43  NE1       16.5780    0.5130   26.7930 N.ar   43  TRP43      -0.2442
     44  CE2       16.7520    1.0740   25.5510 C.ar   43  TRP43       0.0810
     45  CE3       15.7360    0.9310   23.3490 C.ar   43  TRP43       0.0012
     46  CZ2       17.6890    2.0120   25.1050 C.ar   43  TRP43       0.0191
     47  CZ3       16.6610    1.8780   22.9080 C.ar   43  TRP43       0.0001
     48  CH2       17.6140    2.4030   23.7800 C.ar   43  TRP43       0.0015
     49  N          0.2970   -3.2110   19.5110 N.3    85  HIS85      -0.1241
     50  CA         0.9790   -2.8280   18.2590 C.3    85  HIS85       0.1621
     51  C         -0.0690   -2.2620   17.2880 C.2    85  HIS85       0.2264
     52  O          0.2470   -1.9880   16.1210 O.2    85  HIS85      -0.2867
     53  CB         1.6650   -4.0630   17.6010 C.3    85  HIS85       0.0745
     54  CG         2.8620   -4.5950   18.3290 C.ar   85  HIS85       0.0817
     55  ND1        3.8560   -3.7900   18.8390 N.ar   85  HIS85      -0.2268
     56  CD2        3.2210   -5.8650   18.6240 C.ar   85  HIS85       0.1154
     57  CE1        4.7690   -4.5340   19.4270 C.ar   85  HIS85       0.1986
     58  NE2        4.4070   -5.8030   19.3100 N.ar   85  HIS85      -0.2212
     59  N         10.7610    4.2040   15.5970 N.3   107  ARG107     -0.1245
     60  CA        12.1660    3.8760   15.2620 C.3   107  ARG107      0.1563
     61  C         12.3080    3.9910   13.7490 C.2   107  ARG107      0.2260
     62  O         11.3320    3.7610   13.0350 O.2   107  ARG107     -0.2867
     63  CB        12.4510    2.4290   15.6680 C.3   107  ARG107      0.0307
     64  CG        13.9190    1.9960   15.4330 C.3   107  ARG107      0.0489
     65  CD        14.1410    0.5440   15.8720 C.3   107  ARG107      0.2205
     66  NE        15.5620    0.2160   15.9130 N.pl3 107  ARG107     -0.0865
     67  CZ        16.0240   -1.0100   16.1310 C.cat 107  ARG107      0.5346
     68  NH1       17.3310   -1.2390   16.1880 N.pl3 107  ARG107      0.1354
     69  NH2       15.1750   -2.0140   16.2660 N.pl3 107  ARG107      0.1354
     70  N         15.9550    0.5320   10.0400 N.3   111  ASP111     -0.1239
     71  CA        16.3110   -0.3740   11.1400 C.3   111  ASP111      0.1674
     72  C         15.1430   -1.2490   11.5410 C.2   111  ASP111      0.2266
     73  O         15.3640   -2.3980   11.9340 O.2   111  ASP111     -0.2867
     74  CB        16.8510    0.4040   12.3620 C.3   111  ASP111      0.1410
     75  CG        18.3270    0.8420   12.1730 C.2   111  ASP111      0.3668
     76  OD1       19.0770    0.1730   11.4370 O.co2 111  ASP111     -0.2456
     77  OD2       18.7250    1.8580   12.7630 O.co2 111  ASP111     -0.2456
     78  N         15.2710   -5.3570   11.6260 N.3   115  SER115     -0.1217
     79  CA        14.9460   -6.0750   12.8690 C.3   115  SER115      0.1889
     80  C         13.7820   -7.0450   12.5980 C.2   115  SER115      0.2288
     81  O         13.7810   -8.1670   13.1010 O.2   115  SER115     -0.2866
     82  CB        14.6320   -5.0520   13.9800 C.3   115  SER115      0.2089
     83  OG        14.3620   -5.6620   15.2230 O.3   115  SER115     -0.2183
     84  N         13.7050  -11.1870   12.9790 N.3   119  PHE119     -0.1241
     85  CA        12.6290  -11.7050   13.8430 C.3   119  PHE119      0.1605
     86  C         11.7080  -12.7060   13.1400 C.2   119  PHE119      0.2264
     87  O         11.3850  -13.7460   13.7160 O.2   119  PHE119     -0.2867
     88  CB        11.7990  -10.5380   14.3800 C.3   119  PHE119      0.0534
     89  CG        10.8560  -10.9160   15.5130 C.ar  119  PHE119     -0.0203
     90  CD1       11.3520  -11.4380   16.6870 C.ar  119  PHE119     -0.0042
     91  CD2        9.4950  -10.6670   15.4050 C.ar  119  PHE119     -0.0042
     92  CE1       10.4850  -11.7640   17.7530 C.ar  119  PHE119     -0.0003
     93  CE2        8.6200  -10.9990   16.4460 C.ar  119  PHE119     -0.0003
     94  CZ         9.1420  -11.5420   17.6320 C.ar  119  PHE119     -0.0000
     95  N         13.5740  -16.0320   12.9140 N.3   122  MET122     -0.1196
     96  CA        13.7600  -16.8130   14.1370 C.3   122  MET122      0.1786
     97  C         12.4550  -17.2020   14.8320 C.2   122  MET122      0.2306
     98  O         12.4660  -18.0700   15.7010 O.2   122  MET122     -0.2863
     99  CB        14.7510  -16.1430   15.1050 C.2   122  MET122      0.0070
    100  CG        14.8030  -14.6330   15.0570 C.2   122  MET122      0.0282
    101  SD        16.0900  -13.8560   16.0890 S.3   122  MET122     -0.1125
    102  CE        15.7440  -12.0630   15.8070 C.3   122  MET122      0.0742
    103  N         13.3080    5.6970   19.4140 N.3   170  TYR170     -0.1241
    104  CA        14.3230    4.7020   19.7390 C.3   170  TYR170      0.1605
    105  C         15.7510    5.2640   19.6890 C.2   170  TYR170      0.2264
    106  O         16.5590    5.0280   20.6080 O.2   170  TYR170     -0.2867
    107  CB        14.1700    3.4820   18.7830 C.3   170  TYR170      0.0534
    108  CG        15.1490    2.3740   19.0040 C.ar  170  TYR170     -0.0201
    109  CD1       14.7980    1.2350   19.7520 C.ar  170  TYR170     -0.0009
    110  CD2       16.4480    2.4590   18.4880 C.ar  170  TYR170     -0.0009
    111  CE1       15.7120    0.1910   19.9490 C.ar  170  TYR170      0.0417
    112  CE2       17.3690    1.4330   18.6920 C.ar  170  TYR170      0.0417
    113  CZ        17.0030    0.3100   19.3940 C.ar  170  TYR170      0.1957
    114  OH        17.9540   -0.6690   19.5570 O.3   170  TYR170     -0.2866
    115  N         18.6270    5.5580   22.5900 N.3   174  LYS174     -0.1245
    116  CA        19.9730    4.9990   22.4750 C.3   174  LYS174      0.1561
    117  C         21.0200    6.1060   22.6930 C.2   174  LYS174      0.2260
    118  O         22.0490    5.8840   23.3680 O.2   174  LYS174     -0.2867
    119  CB        20.1880    4.2970   21.1120 C.3   174  LYS174      0.0271
    120  CG        21.4050    3.3120   21.0840 C.3   174  LYS174      0.0035
    121  CD        21.1720    2.0520   21.9080 C.3   174  LYS174      0.0206
    122  CE        22.4770    1.2500   22.0530 C.3   174  LYS174      0.1093
    123  NZ        22.2610   -0.0170   22.7910 N.3   174  LYS174     -0.1314
    124  N         18.8050   -0.9280   32.1710 N.3   204  THR204     -0.1218
    125  CA        18.0640   -1.1290   30.9130 C.3   204  THR204      0.1862
    126  C         18.9280   -1.0110   29.6580 C.2   204  THR204      0.2287
    127  O         18.4000   -0.9350   28.5370 O.2   204  THR204     -0.2866
    128  CB        16.8510   -0.1930   30.7960 C.3   204  THR204      0.1770
    129  OG1       17.3020    1.1670   30.8160 O.3   204  THR204     -0.2211
    130  CG2       15.8660   -0.4620   31.9270 C.3   204  THR204      0.0375
    131  N         21.1950   -2.4160   26.6350 N.3   206  PHE206     -0.1241
    132  CA        21.1170   -3.6350   25.8460 C.3   206  PHE206      0.1605
    133  C         21.9800   -4.7480   26.4640 C.2   206  PHE206      0.2264
    134  O         21.5420   -5.8860   26.6040 O.2   206  PHE206     -0.2867
    135  CB        21.5700   -3.3690   24.3980 C.3   206  PHE206      0.0534
    136  CG        21.4830   -4.5770   23.5300 C.ar  206  PHE206     -0.0203
    137  CD1       22.6050   -5.3730   23.3020 C.ar  206  PHE206     -0.0042
    138  CD2       20.2690   -4.9500   22.9660 C.ar  206  PHE206     -0.0042
    139  CE1       22.5060   -6.5310   22.5120 C.ar  206  PHE206     -0.0003
    140  CE2       20.1680   -6.0950   22.1710 C.ar  206  PHE206     -0.0003
    141  CZ        21.2910   -6.8840   21.9340 C.ar  206  PHE206     -0.0000
    142  N         20.2760   -6.1400   29.7040 N.3   209  MET209     -0.1245
    143  CA        19.0500   -6.8470   29.4340 C.3   209  MET209      0.1570
    144  C         19.3050   -8.1450   28.6590 C.2   209  MET209      0.2261
    145  O         18.6010   -9.1300   28.8650 O.2   209  MET209     -0.2867
    146  CB        18.0740   -5.9450   28.6850 C.3   209  MET209      0.0387
    147  CG        17.4780   -4.8390   29.5290 C.3   209  MET209      0.0595
    148  SD        16.2010   -3.9320   28.6460 S.3   209  MET209     -0.1393
    149  CE        14.9920   -5.2080   28.2100 C.3   209  MET209      0.0692
    150  N         13.4200  -11.2670   20.8350 N.3   213  PHE213     -0.1227
    151  CA        14.8480  -11.4940   20.6660 C.3   213  PHE213      0.1736
    152  C         15.6920  -10.2180   20.7120 C.2   213  PHE213      0.2595
    153  O         15.4770   -9.2380   19.9560 O.2   213  PHE213     -0.2718
    154  CB        15.1780  -12.2770   19.3970 C.3   213  PHE213      0.0547
    155  CG        16.6590  -12.6090   19.2610 C.ar  213  PHE213     -0.0202
    156  CD1       17.3950  -12.1550   18.1740 C.ar  213  PHE213     -0.0042
    157  CD2       17.3210  -13.3270   20.2530 C.ar  213  PHE213     -0.0042
    158  CE1       18.7610  -12.4550   18.0440 C.ar  213  PHE213     -0.0003
    159  CE2       18.6950  -13.6220   20.1450 C.ar  213  PHE213     -0.0003
    160  CZ        19.4110  -13.1850   19.0390 C.ar  213  PHE213     -0.0000
    161  N         16.6730  -10.2640   21.5990 N.am  214  MET214     -0.1965
    162  CA        17.5850   -9.1830   21.7690 C.3   214  MET214      0.1736
    163  C         18.7540   -9.4590   20.8400 C.2   214  MET214      0.2616
    164  O         19.6740  -10.2430   21.1640 O.2   214  MET214     -0.2715
    165  CB        17.9650   -9.0690   23.2410 C.3   214  MET214      0.0427
    166  CG        16.8460   -8.3870   24.0950 C.3   214  MET214      0.0599
    167  SD        17.5400   -8.1260   25.7060 S.3   214  MET214     -0.1393
    168  CE        18.4440   -6.6040   25.3790 C.3   214  MET214      0.0692
    169  N         18.7160   -8.8030   19.6810 N.am  215  ARG215     -0.1963
    170  CA        19.5830   -9.1530   18.5710 C.3   215  ARG215      0.1729
    171  C         20.8900   -8.3530   18.5870 C.2   215  ARG215      0.2616
    172  O         21.9550   -8.8970   18.9010 O.2   215  ARG215     -0.2715
    173  CB        18.8370   -9.0010   17.2480 C.3   215  ARG215      0.0348
    174  CG        19.6380   -9.4620   16.0300 C.3   215  ARG215      0.0492
    175  CD        18.8700   -9.2290   14.7320 C.3   215  ARG215      0.2205
    176  NE        18.6740   -7.8010   14.4800 N.pl3 215  ARG215     -0.0865
    177  CZ        19.5630   -7.0450   13.8300 C.cat 215  ARG215      0.5346
    178  NH1       20.6880   -7.5920   13.3500 N.pl3 215  ARG215      0.1354
    179  NH2       19.3390   -5.7520   13.6510 N.pl3 215  ARG215      0.1354
    180  N         20.8110   -7.0640   18.2840 N.am  216  LYS216     -0.1963
    181  CA        22.0090   -6.2100   18.3070 C.3   216  LYS216      0.1728
    182  C         21.8090   -4.9580   19.1260 C.2   216  LYS216      0.2617
    183  O         22.7510   -4.4830   19.8130 O.2   216  LYS216     -0.2715
    184  CB        22.4290   -5.8000   16.8960 C.3   216  LYS216      0.0311
    185  CG        23.2100   -6.8280   16.1690 C.3   216  LYS216      0.0038
    186  CD        24.0650   -6.1220   15.0880 C.3   216  LYS216      0.0206
    187  CE        25.4600   -6.7330   15.0630 C.3   216  LYS216      0.1093
    188  NZ        26.4910   -5.6770   14.8420 N.3   216  LYS216     -0.1314
    189  N         20.6000   -4.4060   19.0360 N.am  217  GLY217     -0.1940
    190  CA        20.1900   -3.2860   19.8700 C.3   217  GLY217      0.2014
    191  C         20.8970   -1.9740   19.5740 C.2   217  GLY217      0.2639
    192  O         21.1900   -1.2180   20.4880 O.2   217  GLY217     -0.2714
    193  N         21.1850   -1.6950   18.3010 N.am  218  THR218     -0.1950
    194  CA        21.8370   -0.4200   17.9620 C.3   218  THR218      0.1897
    195  C         21.0620    0.3710   16.9050 C.2   218  THR218      0.2313
    196  O         19.9770   -0.0480   16.4970 O.2   218  THR218     -0.2863
    197  CB        23.3000   -0.6360   17.5140 C.3   218  THR218      0.1794
    198  OG1       23.9730    0.6330   17.5560 O.3   218  THR218     -0.2208
    199  CG2       23.3630   -1.2290   16.1090 C.3   218  THR218      0.0378
    200  N         22.1990   -0.4900   11.8730 N.3   221  ASP221     -0.1239
    201  CA        22.4600   -1.8370   11.3280 C.3   221  ASP221      0.1674
    202  C         21.8850   -1.9480    9.8970 C.2   221  ASP221      0.2266
    203  O         22.3000   -2.7940    9.1080 O.2   221  ASP221     -0.2867
    204  CB        21.8890   -2.9410   12.2500 C.3   221  ASP221      0.1410
    205  CG        22.4610   -4.3120   11.9500 C.2   221  ASP221      0.3668
    206  OD1       23.6650   -4.4140   11.6250 O.co2 221  ASP221     -0.2456
    207  OD2       21.7180   -5.3060   12.0620 O.co2 221  ASP221     -0.2456
@<TRIPOS>BOND
     1   203   202    2
     2   202   201    1
     3    70    71    1
     4    71    72    1
     5    71    74    1
     6   201   200    1
     7   201   204    1
     8    76    75   ar
     9    72    73    2
    10   206   205   ar
    11    78    79    1
    12   205   207   ar
    13   205   204    1
    14    75    74    1
    15    75    77   ar
    16    80    79    1
    17    80    81    2
    18    79    82    1
    19    95    96    1
    20    84    85    1
    21    62    61    2
    22    86    87    2
    23    86    85    1
    24   178   177    1
    25   179   177    1
    26    61    60    1
    27   177   176    2
    28    85    88    1
    29    82    83    1
    30    96    97    1
    31    96    99    1
    32    88    89    1
    33   176   175    1
    34     4     3    2
    35     7     6    1
    36     7     1    1
    37    13    12    1
    38    13    14    1
    39     6     5    1
    40   175   174    1
    41    97    98    2
    42   188   187    1
    43     5     2    1
    44   100    99    2
    45   100   101    1
    46   187   186    1
    47   186   185    1
    48    12     9    1
    49    60    59    1
    50    60    63    1
    51    91    89   ar
    52    91    93   ar
    53    64    63    1
    54    64    65    1
    55     1     2    1
    56    89    90   ar
    57     3     2    1
    58     3     8   am
    59    14    15    1
    60   102   101    1
    61    65    66    1
    62    66    67    2
    63   174   173    1
    64   199   197    1
    65    52    51    2
    66    67    68    1
    67    67    69    1
    68   185   184    1
    69    15    16    1
    70    93    94   ar
    71     9     8    1
    72     9    10    1
    73   196   195    2
    74    11    10    2
    75    90    92   ar
    76   184   181    1
    77   195   194    1
    78   173   170    1
    79    51    50    1
    80   197   198    1
    81   197   194    1
    82    53    50    1
    83    53    54    1
    84    94    92   ar
    85   194   193    1
    86   158   156   ar
    87   158   160   ar
    88   156   155   ar
    89    50    49    1
    90   180   181    1
    91   180   171   am
    92   193   191   am
    93   181   182    1
    94    54    56   ar
    95    54    55   ar
    96   110   112   ar
    97   110   108   ar
    98   170   171    1
    99   170   169    1
   100   171   172    2
   101    56    58   ar
   102   112   113   ar
   103   107   108    1
   104   107   104    1
   105    55    57   ar
   106   108   109   ar
   107   189   182   am
   108   189   190    1
   109   160   159   ar
   110   182   183    2
   111   155   154    1
   112   155   157   ar
   113    58    57   ar
   114   113   114    1
   115   113   111   ar
   116   154   151    1
   117   103   104    1
   118   191   190    1
   119   191   192    2
   120    17    18    1
   121   169   163   am
   122   105   104    1
   123   105   106    2
   124   109   111   ar
   125   153   152    2
   126   159   157   ar
   127   151   152    1
   128   151   150    1
   129   152   161   am
   130   163   164    2
   131   163   162    1
   132    26    25    1
   133    18    19    1
   134   120   119    1
   135   120   121    1
   136   119   116    1
   137   161   162    1
   138   162   165    1
   139    21    19   am
   140    21    22    1
   141   121   122    1
   142   141   140   ar
   143   141   139   ar
   144   122   123    1
   145    19    20    2
   146   140   138   ar
   147    25    22    1
   148    25    27    1
   149   116   115    1
   150   116   117    1
   151   139   137   ar
   152   117   118    2
   153    22    23    1
   154    47    45   ar
   155    47    48   ar
   156   138   136   ar
   157   165   166    1
   158   137   136   ar
   159    45    42   ar
   160   136   135    1
   161    33    32    1
   162    48    46   ar
   163    28    23   am
   164    28    29    1
   165   166   167    1
   166    23    24    2
   167   135   132    1
   168    32    29    1
   169    32    34    1
   170    42    40   ar
   171    42    44   ar
   172    39    40    1
   173    39    36    1
   174    29    30    1
   175    46    44   ar
   176    35    30   am
   177    35    36    1
   178   168   167    1
   179    40    41   ar
   180    44    43   ar
   181   132   133    1
   182   132   131    1
   183    30    31    2
   184    36    37    1
   185   133   134    2
   186    41    43   ar
   187    37    38    2
   188   149   148    1
   189   127   126    2
   190   148   147    1
   191   144   145    2
   192   144   143    1
   193   146   143    1
   194   146   147    1
   195   143   142    1
   196   126   125    1
   197   128   129    1
   198   128   125    1
   199   128   130    1
   200   125   124    1
