@<TRIPOS>MOLECULE
tmp/3bg3B00.pdb
 142 133 0 0 0
SMALL
GASTEIGER

@<TRIPOS>ATOM
      1  N         26.2990  -53.2490   12.9920 N.3    82  GLN82      -0.1245
      2  CA        24.9010  -52.9710   13.3000 C.3    82  GLN82       0.1566
      3  C         24.5200  -51.6370   12.6520 C.2    82  GLN82       0.2260
      4  O         23.3960  -51.4590   12.1870 O.2    82  GLN82      -0.2867
      5  CB        24.6880  -52.9310   14.8130 C.3    82  GLN82       0.0367
      6  CG        23.2440  -52.7420   15.2540 C.3    82  GLN82       0.0905
      7  CD        23.0460  -52.9880   16.7550 C.2    82  GLN82       0.2608
      8  OE1       23.6590  -53.8970   17.3460 O.2    82  GLN82      -0.2717
      9  NE2       22.1780  -52.1970   17.3680 N.am   82  GLN82      -0.0878
     10  N         23.7220  -55.3350   10.9260 N.3    87  THR87      -0.1203
     11  CA        24.1260  -56.4200   11.8490 C.3    87  THR87       0.1994
     12  C         24.3300  -57.7940   11.2100 C.2    87  THR87       0.2617
     13  O         24.1420  -58.8180   11.8750 O.2    87  THR87      -0.2717
     14  CB        23.1070  -56.5900   13.0020 C.3    87  THR87       0.1784
     15  OG1       22.1720  -55.4990   13.0270 O.3    87  THR87      -0.2211
     16  CG2       23.8140  -56.5400   14.3500 C.3    87  THR87       0.0376
     17  N         24.7140  -57.8330    9.9370 N.am   88  ARG88      -0.1979
     18  CA        24.7080  -59.0900    9.2020 C.3    88  ARG88       0.1597
     19  C         26.0090  -59.8670    9.2750 C.2    88  ARG88       0.2287
     20  O         26.1260  -60.9440    8.6860 O.2    88  ARG88      -0.2864
     21  CB        24.3500  -58.8600    7.7380 C.3    88  ARG88       0.0334
     22  CG        22.9100  -58.4980    7.4790 C.3    88  ARG88       0.0492
     23  CD        21.8660  -59.4760    8.0160 C.3    88  ARG88       0.2205
     24  NE        20.6640  -58.7390    8.3900 N.pl3  88  ARG88      -0.0865
     25  CZ        19.5550  -58.6860    7.6680 C.cat  88  ARG88       0.5346
     26  NH1       19.4480  -59.3620    6.5290 N.pl3  88  ARG88       0.1354
     27  NH2       18.5350  -57.9710    8.1050 N.pl3  88  ARG88       0.1354
     28  N         21.8020  -55.8400   18.6640 N.3   117  ALA117     -0.1245
     29  CA        20.9680  -56.5590   17.7050 C.3   117  ALA117      0.1562
     30  C         21.5890  -57.8740   17.2270 C.2   117  ALA117      0.2260
     31  O         20.9190  -58.6540   16.5640 O.2   117  ALA117     -0.2867
     32  CB        20.6220  -55.6670   16.5130 C.3   117  ALA117      0.0290
     33  N         19.4810  -61.2400   18.0620 N.3   120  ASP120     -0.1225
     34  CA        18.3230  -61.4210   17.2000 C.3   120  ASP120      0.1805
     35  C         18.7690  -61.7780   15.7830 C.2   120  ASP120      0.2597
     36  O         18.4490  -62.8450   15.2670 O.2   120  ASP120     -0.2718
     37  CB        17.5130  -60.1240   17.2200 C.3   120  ASP120      0.1424
     38  CG        16.2060  -60.2120   16.4570 C.2   120  ASP120      0.3668
     39  OD1       16.0160  -61.1340   15.6350 O.co2 120  ASP120     -0.2456
     40  OD2       15.3040  -59.3570   16.6030 O.co2 120  ASP120     -0.2456
     41  N         19.5410  -60.8930   15.1720 N.am  121  VAL121     -0.1980
     42  CA        19.9350  -61.0550   13.7750 C.3   121  VAL121      0.1595
     43  C         20.6530  -62.3870   13.4730 C.2   121  VAL121      0.2287
     44  O         20.3810  -63.0160   12.4460 O.2   121  VAL121     -0.2864
     45  CB        20.7350  -59.8310   13.2820 C.3   121  VAL121      0.0276
     46  CG1       21.2310  -60.0330   11.8710 C.3   121  VAL121      0.0022
     47  CG2       19.8660  -58.5820   13.3450 C.3   121  VAL121      0.0022
     48  N         17.8990  -65.0070   13.3900 N.3   124  ARG124     -0.1231
     49  CA        16.7810  -64.7070   12.4910 C.3   124  ARG124      0.1694
     50  C         17.1830  -64.7300   11.0190 C.2   124  ARG124      0.2592
     51  O         16.3780  -65.0790   10.1510 O.2   124  ARG124     -0.2718
     52  CB        16.1620  -63.3510   12.8350 C.3   124  ARG124      0.0321
     53  CG        14.7820  -63.1240   12.2270 C.3   124  ARG124      0.0489
     54  CD        14.2870  -61.6830   12.2510 C.3   124  ARG124      0.2205
     55  NE        14.0820  -61.1730   13.6090 N.pl3 124  ARG124     -0.0865
     56  CZ        12.9100  -61.1320   14.2350 C.cat 124  ARG124      0.5346
     57  NH1       11.8120  -61.5650   13.6340 N.pl3 124  ARG124      0.1354
     58  NH2       12.8380  -60.6520   15.4680 N.pl3 124  ARG124      0.1354
     59  N         18.4360  -64.3700   10.7490 N.am  125  PHE125     -0.1976
     60  CA        18.8820  -64.0410    9.3970 C.3   125  PHE125      0.1639
     61  C         20.1380  -64.7980    8.9810 C.2   125  PHE125      0.2290
     62  O         20.3360  -65.0880    7.7970 O.2   125  PHE125     -0.2864
     63  CB        19.1750  -62.5410    9.3030 C.3   125  PHE125      0.0560
     64  CG        17.9560  -61.6720    9.3400 C.ar  125  PHE125     -0.0200
     65  CD1       17.7850  -60.7410   10.3610 C.ar  125  PHE125     -0.0042
     66  CD2       16.9830  -61.7590    8.3400 C.ar  125  PHE125     -0.0042
     67  CE1       16.6590  -59.9150   10.3930 C.ar  125  PHE125     -0.0003
     68  CE2       15.8600  -60.9420    8.3690 C.ar  125  PHE125     -0.0003
     69  CZ        15.6990  -60.0210    9.4020 C.ar  125  PHE125     -0.0000
     70  N         20.3970  -54.4170   27.3610 N.3   151  ARG151     -0.1245
     71  CA        19.3390  -53.4110   27.4110 C.3   151  ARG151      0.1563
     72  C         18.6120  -53.3830   28.7580 C.2   151  ARG151      0.2260
     73  O         17.4150  -53.1130   28.8220 O.2   151  ARG151     -0.2867
     74  CB        18.3620  -53.6370   26.2530 C.3   151  ARG151      0.0307
     75  CG        19.0430  -53.4960   24.9070 C.3   151  ARG151      0.0489
     76  CD        18.3010  -54.0300   23.6980 C.3   151  ARG151      0.2205
     77  NE        19.0620  -53.6800   22.4980 N.pl3 151  ARG151     -0.0865
     78  CZ        18.9390  -54.2670   21.3170 C.cat 151  ARG151      0.5346
     79  NH1       18.0640  -55.2550   21.1390 N.pl3 151  ARG151      0.1354
     80  NH2       19.6950  -53.8540   20.3020 N.pl3 151  ARG151      0.1354
     81  N         13.1370  -56.2790   23.0370 N.3   158  TYR158     -0.1241
     82  CA        12.4690  -55.0170   22.7140 C.3   158  TYR158      0.1605
     83  C         11.4070  -54.6140   23.7460 C.2   158  TYR158      0.2264
     84  O         10.7830  -53.5540   23.6350 O.2   158  TYR158     -0.2867
     85  CB        11.9210  -55.0650   21.2750 C.3   158  TYR158      0.0534
     86  CG        12.9720  -55.5330   20.2820 C.ar  158  TYR158     -0.0201
     87  CD1       13.0620  -56.8810   19.9150 C.ar  158  TYR158     -0.0009
     88  CD2       13.9140  -54.6380   19.7480 C.ar  158  TYR158     -0.0009
     89  CE1       14.0470  -57.3270   19.0260 C.ar  158  TYR158      0.0417
     90  CE2       14.9070  -55.0700   18.8540 C.ar  158  TYR158      0.0417
     91  CZ        14.9700  -56.4210   18.4980 C.ar  158  TYR158      0.1957
     92  OH        15.9390  -56.8690   17.6150 O.3   158  TYR158     -0.2866
     93  N         19.1450  -42.5460   16.2180 N.3   373  PRO373     -0.2116
     94  CA        20.3810  -43.2450   16.5760 C.3   373  PRO373      0.1372
     95  C         21.1100  -43.8610   15.3810 C.2   373  PRO373      0.2244
     96  O         20.5050  -44.0880   14.3360 O.2   373  PRO373     -0.2868
     97  CB        19.9010  -44.3480   17.5220 C.3   373  PRO373      0.0268
     98  CG        18.6140  -43.8630   18.0440 C.3   373  PRO373      0.0207
     99  CD        17.9790  -43.0760   16.9440 C.3   373  PRO373      0.0892
    100  N         22.2600  -47.0180   14.5570 N.3   375  GLY375     -0.1210
    101  CA        21.5180  -48.1720   14.0050 C.3   375  GLY375      0.1956
    102  C         20.2480  -47.8260   13.2180 C.2   375  GLY375      0.2611
    103  O         20.0720  -48.2340   12.0570 O.2   375  GLY375     -0.2717
    104  N         19.3730  -47.0570   13.8490 N.am  376  GLN376     -0.1979
    105  CA        18.0950  -46.6930   13.2590 C.3   376  GLN376      0.1601
    106  C         18.1490  -45.7890   12.0140 C.2   376  GLN376      0.2287
    107  O         17.1890  -45.7590   11.2320 O.2   376  GLN376     -0.2864
    108  CB        17.2440  -46.0050   14.3100 C.3   376  GLN376      0.0394
    109  CG        16.1860  -46.8510   14.9440 C.3   376  GLN376      0.0908
    110  CD        15.0430  -45.9890   15.4170 C.2   376  GLN376      0.2608
    111  OE1       13.8810  -46.3290   15.2140 O.2   376  GLN376     -0.2717
    112  NE2       15.3660  -44.8490   16.0150 N.am  376  GLN376     -0.0878
    113  N         18.4240  -48.3200    9.2960 N.3   379  ASN379     -0.1240
    114  CA        17.2780  -49.2360    9.1540 C.3   379  ASN379      0.1653
    115  C         15.9230  -48.5680    8.8510 C.2   379  ASN379      0.2266
    116  O         14.8930  -49.0040    9.3730 O.2   379  ASN379     -0.2867
    117  CB        17.1780  -50.1970   10.3680 C.3   379  ASN379      0.1155
    118  CG        18.3870  -51.1510   10.4870 C.2   379  ASN379      0.2627
    119  OD1       18.7040  -51.6420   11.5790 O.2   379  ASN379     -0.2716
    120  ND2       19.0560  -51.4150    9.3660 N.am  379  ASN379     -0.0877
    121  N         17.1730  -48.0240   22.1410 N.3   414  THR414     -0.1218
    122  CA        16.4130  -49.2580   21.9780 C.3   414  THR414      0.1862
    123  C         15.9160  -49.6480   23.3410 C.2   414  THR414      0.2287
    124  O         16.6800  -49.5720   24.2990 O.2   414  THR414     -0.2866
    125  CB        17.3320  -50.3780   21.4680 C.3   414  THR414      0.1770
    126  OG1       18.2240  -49.8530   20.4750 O.3   414  THR414     -0.2211
    127  CG2       16.5290  -51.4510   20.7310 C.3   414  THR414      0.0375
    128  N         13.5130  -45.8160   20.8470 N.3   417  SER417     -0.1202
    129  CA        13.6170  -45.3150   19.4810 C.3   417  SER417      0.2020
    130  C         12.7910  -46.1360   18.4850 C.2   417  SER417      0.2618
    131  O         12.1670  -45.5700   17.5760 O.2   417  SER417     -0.2717
    132  CB        15.0810  -45.2970   19.0550 C.3   417  SER417      0.2103
    133  OG        15.6230  -46.5990   19.0930 O.3   417  SER417     -0.2182
    134  N         12.7950  -47.4620   18.6640 N.am  418  LYS418     -0.1979
    135  CA        11.9370  -48.3790   17.9040 C.3   418  LYS418      0.1596
    136  C         10.4740  -47.9670   17.9990 C.2   418  LYS418      0.2287
    137  O          9.7710  -47.9480   16.9990 O.2   418  LYS418     -0.2864
    138  CB        12.1050  -49.8130   18.4090 C.3   418  LYS418      0.0298
    139  CG        11.3250  -50.8650   17.6330 C.3   418  LYS418      0.0038
    140  CD        11.2780  -52.1740   18.4070 C.3   418  LYS418      0.0206
    141  CE        10.6700  -53.3010   17.5830 C.3   418  LYS418      0.1093
    142  NZ        11.6830  -53.9370   16.6860 N.3   418  LYS418     -0.1314
@<TRIPOS>BOND
     1    26    25    1
     2    22    21    1
     3    22    23    1
     4    25    27    1
     5    25    24    2
     6    21    18    1
     7    62    61    2
     8    23    24    1
     9    66    68   ar
    10    66    64   ar
    11    68    69   ar
    12    20    19    2
    13   115   114    1
    14   115   116    2
    15    61    60    1
    16   114   113    1
    17   114   117    1
    18    18    19    1
    19    18    17    1
    20    63    64    1
    21    63    60    1
    22    64    65   ar
    23   120   118   am
    24    60    59    1
    25    69    67   ar
    26    17    12   am
    27    51    50    2
    28    65    67   ar
    29   117   118    1
    30   118   119    2
    31    59    50   am
    32    10    11    1
    33    50    49    1
    34    12    11    1
    35    12    13    2
    36   107   106    2
    37    11    14    1
    38    46    45    1
    39   106   105    1
    40   103   102    2
    41     4     3    2
    42    53    54    1
    43    53    52    1
    44    54    55    1
    45    44    43    2
    46    49    52    1
    47    49    48    1
    48     3     2    1
    49     1     2    1
    50    14    15    1
    51    14    16    1
    52   102   104   am
    53   102   101    1
    54   105   104    1
    55   105   108    1
    56    45    47    1
    57    45    42    1
    58     2     5    1
    59    43    42    1
    60    55    56    2
    61    57    56    1
    62    42    41    1
    63   101   100    1
    64    56    58    1
    65   108   109    1
    66    96    95    2
    67     5     6    1
    68   109   110    1
    69    41    35   am
    70   111   110    2
    71     6     7    1
    72    36    35    2
    73    95    94    1
    74   110   112   am
    75    39    38   ar
    76    35    34    1
    77    93    94    1
    78    93    99    1
    79    38    40   ar
    80    38    37    1
    81    32    29    1
    82    31    30    2
    83    94    97    1
    84   142   141    1
    85     7     8    2
    86     7     9   am
    87    99    98    1
    88   137   136    2
    89    34    37    1
    90    34    33    1
    91    30    29    1
    92    97    98    1
    93   131   130    2
    94   141   140    1
    95    92    91    1
    96   139   140    1
    97   139   138    1
    98    29    28    1
    99   135   136    1
   100   135   138    1
   101   135   134    1
   102   130   134   am
   103   130   129    1
   104    91    90   ar
   105    91    89   ar
   106    90    88   ar
   107    89    87   ar
   108   132   133    1
   109   132   129    1
   110   129   128    1
   111    88    86   ar
   112    87    86   ar
   113    86    85    1
   114    80    78    1
   115   126   125    1
   116   127   125    1
   117    79    78    1
   118    85    82    1
   119    78    77    2
   120   125   122    1
   121   122   121    1
   122   122   123    1
   123    77    76    1
   124    82    81    1
   125    82    83    1
   126   123   124    2
   127    84    83    2
   128    76    75    1
   129    75    74    1
   130    74    71    1
   131    70    71    1
   132    71    72    1
   133    72    73    2
