@<TRIPOS>MOLECULE
tmp/3bg8A00.pdb
 132 131 0 0 0
SMALL
GASTEIGER

@<TRIPOS>ATOM
      1  N         49.7030   30.2910   18.1850 N.3    44  HIS44      -0.1241
      2  CA        51.0630   29.7280   18.0990 C.3    44  HIS44       0.1621
      3  C         51.8130   30.2790   16.8930 C.2    44  HIS44       0.2264
      4  O         53.0550   30.1840   16.8200 O.2    44  HIS44      -0.2867
      5  CB        51.0270   28.2090   18.1180 C.3    44  HIS44       0.0745
      6  CG        50.7780   27.5880   16.7860 C.ar   44  HIS44       0.0817
      7  ND1       49.5590   27.0520   16.4290 N.ar   44  HIS44      -0.2268
      8  CD2       51.6090   27.3820   15.7340 C.ar   44  HIS44       0.1154
      9  CE1       49.6560   26.5220   15.2160 C.ar   44  HIS44       0.1986
     10  NE2       50.8880   26.7160   14.7650 N.ar   44  HIS44      -0.2212
     11  N         44.4460   15.9140    5.5660 N.3   182  ASP182     -0.1225
     12  CA        44.7250   16.6150    6.8140 C.3   182  ASP182      0.1805
     13  C         45.3520   17.9560    6.4930 C.2   182  ASP182      0.2598
     14  O         45.8820   18.1770    5.4020 O.2   182  ASP182     -0.2718
     15  CB        45.7250   15.7590    7.6200 C.3   182  ASP182      0.1424
     16  CG        45.8290   16.1230    9.1070 C.2   182  ASP182      0.3668
     17  OD1       45.0600   16.9620    9.6490 O.co2 182  ASP182     -0.2456
     18  OD2       46.7190   15.5100    9.7640 O.co2 182  ASP182     -0.2456
     19  N         45.3080   18.8480    7.4650 N.am  183  ALA183     -0.1966
     20  CA        46.1470   20.0330    7.4420 C.3   183  ALA183      0.1728
     21  C         47.6210   19.6650    7.6840 C.2   183  ALA183      0.2616
     22  O         47.9270   18.5840    8.1980 O.2   183  ALA183     -0.2715
     23  CB        45.6750   20.9950    8.5100 C.3   183  ALA183      0.0334
     24  N         48.5260   20.5780    7.3510 N.am  184  CYS184     -0.1954
     25  CA        49.9430   20.3730    7.6120 C.3   184  CYS184      0.1843
     26  C         50.6110   21.7170    7.8410 C.2   184  CYS184      0.2625
     27  O         49.9390   22.7470    7.8760 O.2   184  CYS184     -0.2714
     28  CB        50.5870   19.6330    6.4340 C.3   184  CYS184      0.0997
     29  SG        52.1490   18.7490    6.8570 S.3   184  CYS184     -0.0797
     30  N         51.9250   21.7090    8.0410 N.am  185  LYS185     -0.1963
     31  CA        52.6700   22.9390    8.3180 C.3   185  LYS185      0.1728
     32  C         52.3430   24.0450    7.3310 C.2   185  LYS185      0.2616
     33  O         52.3470   23.8140    6.1310 O.2   185  LYS185     -0.2715
     34  CB        54.1820   22.6730    8.3240 C.3   185  LYS185      0.0311
     35  CG        54.9790   23.8550    8.8090 C.3   185  LYS185      0.0038
     36  CD        56.4630   23.5600    9.0140 C.3   185  LYS185      0.0206
     37  CE        57.1750   24.8260    9.4830 C.3   185  LYS185      0.1093
     38  NZ        58.6300   24.6310    9.7690 N.3   185  LYS185     -0.1314
     39  N         52.0280   25.2310    7.8570 N.am  186  GLY186     -0.1955
     40  CA        51.6490   26.3600    7.0180 C.3   186  GLY186      0.1869
     41  C         50.1530   26.5610    6.9110 C.2   186  GLY186      0.2309
     42  O         49.7160   27.6500    6.5260 O.2   186  GLY186     -0.2863
     43  N         48.2900   26.1810    9.6210 N.3   188  SER188     -0.1217
     44  CA        47.9830   26.6950   10.9720 C.3   188  SER188      0.1889
     45  C         47.3160   28.0510   10.9370 C.2   188  SER188      0.2288
     46  O         47.7330   28.9620   10.1940 O.2   188  SER188     -0.2866
     47  CB        49.2510   26.8220   11.8180 C.3   188  SER188      0.2089
     48  OG        49.6820   25.5530   12.2990 O.3   188  SER188     -0.2183
     49  N         42.8510   25.6180   12.5730 N.3   206  THR206     -0.1203
     50  CA        43.9350   24.6230   12.4630 C.3   206  THR206      0.1994
     51  C         45.0290   24.9050   13.4750 C.2   206  THR206      0.2619
     52  O         45.5700   26.0160   13.5250 O.2   206  THR206     -0.2717
     53  CB        44.5090   24.7100   11.0540 C.3   206  THR206      0.1784
     54  OG1       43.4600   24.3900   10.1390 O.3   206  THR206     -0.2211
     55  CG2       45.6540   23.7300   10.8370 C.3   206  THR206      0.0376
     56  N         45.3200   23.8750   14.2970 N.am  207  SER207     -0.1937
     57  CA        46.1530   24.0610   15.4860 C.3   207  SER207      0.2055
     58  C         47.3560   23.1080   15.5470 C.2   207  SER207      0.2643
     59  O         48.4960   23.5660   15.5020 O.2   207  SER207     -0.2714
     60  CB        45.2930   23.8990   16.7580 C.3   207  SER207      0.2130
     61  OG        46.0610   24.2310   17.9420 O.3   207  SER207     -0.2179
     62  N         47.1080   21.8150   15.6930 N.am  208  TRP208     -0.1959
     63  CA        48.2440   20.8700   15.8040 C.3   208  TRP208      0.1771
     64  C         47.8660   19.4590   15.4220 C.2   208  TRP208      0.2620
     65  O         46.7010   19.1450   15.1990 O.2   208  TRP208     -0.2715
     66  CB        48.8420   20.9050   17.2330 C.3   208  TRP208      0.0590
     67  CG        47.9110   20.4680   18.3420 C.ar  208  TRP208      0.0006
     68  CD1       46.9730   21.2330   18.9860 C.ar  208  TRP208      0.0946
     69  CD2       47.8700   19.1800   18.9660 C.ar  208  TRP208      0.0152
     70  NE1       46.3350   20.4930   19.9620 N.ar  208  TRP208     -0.2442
     71  CE2       46.8810   19.2290   19.9680 C.ar  208  TRP208      0.0810
     72  CE3       48.5870   17.9890   18.7700 C.ar  208  TRP208      0.0012
     73  CZ2       46.5740   18.1160   20.7770 C.ar  208  TRP208      0.0191
     74  CZ3       48.2720   16.8850   19.5540 C.ar  208  TRP208      0.0001
     75  CH2       47.2810   16.9560   20.5430 C.ar  208  TRP208      0.0015
     76  N         48.8670   18.5870   15.3410 N.am  209  GLY209     -0.1940
     77  CA        48.6070   17.1650   15.1190 C.3   209  GLY209      0.2014
     78  C         49.9480   16.4550   15.1350 C.2   209  GLY209      0.2639
     79  O         50.9890   17.1160   15.1290 O.2   209  GLY209     -0.2714
     80  N         49.9400   15.1310   15.1620 N.am  210  GLU210     -0.1963
     81  CA        51.2140   14.4190   15.1220 C.3   210  GLU210      0.1733
     82  C         51.5160   14.0950   13.6880 C.2   210  GLU210      0.2617
     83  O         50.8760   13.2360   13.0990 O.2   210  GLU210     -0.2715
     84  CB        51.1960   13.1410   15.9660 C.3   210  GLU210      0.0429
     85  CG        52.6020   12.4240   16.0080 C.3   210  GLU210      0.1163
     86  CD        53.7900   13.3660   16.4080 C.2   210  GLU210      0.3649
     87  OE1       53.7100   13.9740   17.4930 O.co2 210  GLU210     -0.2457
     88  OE2       54.8100   13.5070   15.6490 O.co2 210  GLU210     -0.2457
     89  N         52.4770   14.8140   13.1160 N.am  211  GLY211     -0.1940
     90  CA        52.7820   14.6910   11.7010 C.3   211  GLY211      0.2014
     91  C         51.6090   15.2360   10.8940 C.2   211  GLY211      0.2639
     92  O         50.8950   16.1190   11.3620 O.2   211  GLY211     -0.2714
     93  N         51.4190   14.7340    9.6850 N.am  212  CYS212     -0.1967
     94  CA        50.2800   15.1670    8.8690 C.3   212  CYS212      0.1712
     95  C         49.6930   13.9830    8.1400 C.2   212  CYS212      0.2296
     96  O         50.4230   13.2430    7.4800 O.2   212  CYS212     -0.2864
     97  CB        50.6870   16.2420    7.8500 C.3   212  CYS212      0.0983
     98  SG        51.6340   17.6440    8.5260 S.3   212  CYS212     -0.0798
     99  N         45.7320    9.4770   13.4230 N.3   217  ARG217     -0.1245
    100  CA        46.2040   10.7220   14.0360 C.3   217  ARG217      0.1563
    101  C         45.3960   11.8770   13.4550 C.2   217  ARG217      0.2260
    102  O         45.8960   12.6000   12.5970 O.2   217  ARG217     -0.2867
    103  CB        47.7050   10.9520   13.7980 C.3   217  ARG217      0.0307
    104  CG        48.6300    9.9790   14.5630 C.3   217  ARG217      0.0489
    105  CD        48.5900   10.1000   16.0740 C.3   217  ARG217      0.2205
    106  NE        49.8030    9.4910   16.6390 N.pl3 217  ARG217     -0.0865
    107  CZ        50.2570    9.7030   17.8710 C.cat 217  ARG217      0.5346
    108  NH1       49.5840   10.4820   18.7080 N.pl3 217  ARG217      0.1354
    109  NH2       51.3980    9.1370   18.2740 N.pl3 217  ARG217      0.1354
    110  N         43.7090   15.5310   12.8670 N.3   219  GLY219     -0.1210
    111  CA        44.1160   16.8910   13.1680 C.3   219  GLY219      0.1956
    112  C         43.3290   17.4480   14.3200 C.2   219  GLY219      0.2612
    113  O         42.1490   17.1190   14.5120 O.2   219  GLY219     -0.2717
    114  N         43.9960   18.3080   15.0690 N.am  220  VAL220     -0.1965
    115  CA        43.3960   18.9560   16.2280 C.3   220  VAL220      0.1727
    116  C         43.2470   20.4460   15.9510 C.2   220  VAL220      0.2616
    117  O         44.1660   21.1060   15.4300 O.2   220  VAL220     -0.2715
    118  CB        44.2020   18.7040   17.5210 C.3   220  VAL220      0.0290
    119  CG1       43.4280   19.2180   18.7320 C.3   220  VAL220      0.0023
    120  CG2       44.5150   17.1990   17.6710 C.3   220  VAL220      0.0023
    121  N         42.0440   20.9620   16.2470 N.am  221  TYR221     -0.1974
    122  CA        41.6570   22.3270   15.9220 C.3   221  TYR221      0.1639
    123  C         41.1310   23.0220   17.1740 C.2   221  TYR221      0.2290
    124  O         40.5470   22.3610   18.0570 O.2   221  TYR221     -0.2864
    125  CB        40.5230   22.2980   14.8840 C.3   221  TYR221      0.0560
    126  CG        40.9190   21.6240   13.5760 C.ar  221  TYR221     -0.0198
    127  CD1       40.9640   20.2240   13.4530 C.ar  221  TYR221     -0.0009
    128  CD2       41.2700   22.3950   12.4730 C.ar  221  TYR221     -0.0009
    129  CE1       41.3720   19.6160   12.2370 C.ar  221  TYR221      0.0417
    130  CE2       41.6550   21.8040   11.2740 C.ar  221  TYR221      0.0417
    131  CZ        41.6960   20.4360   11.1560 C.ar  221  TYR221      0.1957
    132  OH        42.0920   19.8780    9.9560 O.3   221  TYR221     -0.2866
@<TRIPOS>BOND
     1    14    13    2
     2    11    12    1
     3    33    32    2
     4    28    29    1
     5    28    25    1
     6    13    12    1
     7    13    19   am
     8    42    41    2
     9    12    15    1
    10    29    98    1
    11    41    40    1
    12    40    39    1
    13    32    39   am
    14    32    31    1
    15    24    25    1
    16    24    21   am
    17    20    19    1
    18    20    21    1
    19    20    23    1
    20    96    95    2
    21    25    26    1
    22    15    16    1
    23    21    22    2
    24    26    27    2
    25    26    30   am
    26    97    98    1
    27    97    94    1
    28    30    31    1
    29    95    94    1
    30    31    34    1
    31    34    35    1
    32    35    36    1
    33    94    93    1
    34    36    37    1
    35    16    17   ar
    36    16    18   ar
    37    37    38    1
    38    43    44    1
    39    93    91   am
    40   132   131    1
    41    54    53    1
    42    46    45    2
    43    55    53    1
    44    91    92    2
    45    91    90    1
    46    45    44    1
    47    44    47    1
    48    53    50    1
    49   131   130   ar
    50   131   129   ar
    51   130   128   ar
    52    90    89    1
    53    47    48    1
    54   129   127   ar
    55    50    49    1
    56    50    51    1
    57   128   126   ar
    58   102   101    2
    59   110   111    1
    60    83    82    2
    61    89    82   am
    62   111   112    1
    63    99   100    1
    64   127   126   ar
    65   101   100    1
    66    51    52    2
    67    51    56   am
    68   126   125    1
    69    82    81    1
    70   103   100    1
    71   103   104    1
    72    56    57    1
    73   112   113    2
    74   112   114   am
    75   104   105    1
    76    10     9   ar
    77    10     8   ar
    78   125   122    1
    79   114   115    1
    80    77    78    1
    81    77    76    1
    82    81    80    1
    83    81    84    1
    84    79    78    2
    85    78    80   am
    86    65    64    2
    87     9     7   ar
    88    76    64   am
    89    64    63    1
    90   117   116    2
    91    57    58    1
    92    57    60    1
    93    59    58    2
    94    58    62   am
    95    88    86   ar
    96    62    63    1
    97     8     6   ar
    98    63    66    1
    99   122   121    1
   100   122   123    1
   101   116   115    1
   102   116   121   am
   103    84    85    1
   104    85    86    1
   105   105   106    1
   106   115   118    1
   107    86    87   ar
   108     7     6   ar
   109   106   107    2
   110    60    61    1
   111     6     5    1
   112     4     3    2
   113     3     2    1
   114   123   124    2
   115    66    67    1
   116   118   120    1
   117   118   119    1
   118   107   109    1
   119   107   108    1
   120     2     5    1
   121     2     1    1
   122    67    69   ar
   123    67    68   ar
   124    72    69   ar
   125    72    74   ar
   126    69    71   ar
   127    68    70   ar
   128    74    75   ar
   129    70    71   ar
   130    71    73   ar
   131    75    73   ar
