@<TRIPOS>MOLECULE
tmp/3bgbB00.pdb
 105 98 0 0 0
SMALL
GASTEIGER

@<TRIPOS>ATOM
      1  N          8.6270   -8.4930  -24.3620 N.3     8  ARG8       -0.1245
      2  CA         9.3770   -9.7440  -24.5090 C.3     8  ARG8        0.1563
      3  C         10.2960   -9.6820  -25.7150 C.2     8  ARG8        0.2260
      4  O          9.8580   -9.1800  -26.7570 O.2     8  ARG8       -0.2867
      5  CB         8.3860  -10.8940  -24.6540 C.3     8  ARG8        0.0307
      6  CG         7.4800  -11.0320  -23.4370 C.3     8  ARG8        0.0489
      7  CD         6.5820  -12.2400  -23.6390 C.3     8  ARG8        0.2205
      8  NE         6.0340  -12.7530  -22.3960 N.pl3   8  ARG8       -0.0865
      9  CZ         6.5440  -13.7050  -21.6320 C.cat   8  ARG8        0.5346
     10  NH1        7.6790  -14.3200  -21.9430 N.pl3   8  ARG8        0.1354
     11  NH2        5.9080  -14.0590  -20.5200 N.pl3   8  ARG8        0.1354
     12  N         11.6300  -16.7420  -28.2000 N.3    23  LEU23      -0.1245
     13  CA        12.0640  -15.8730  -27.1160 C.3    23  LEU23       0.1561
     14  C         13.5590  -15.9520  -26.8430 C.2    23  LEU23       0.2260
     15  O         14.0950  -17.0430  -26.6030 O.2    23  LEU23      -0.2867
     16  CB        11.2600  -16.3050  -25.8900 C.3    23  LEU23       0.0270
     17  CG        11.4610  -15.4960  -24.6230 C.3    23  LEU23       0.0019
     18  CD1       10.9370  -14.0880  -24.8240 C.3    23  LEU23       0.0001
     19  CD2       10.7760  -16.2000  -23.4530 C.3    23  LEU23       0.0001
     20  N         16.3010  -15.9160  -24.5270 N.3    25  ASP25      -0.1239
     21  CA        16.2410  -16.1890  -23.0890 C.3    25  ASP25       0.1674
     22  C         17.6050  -16.4870  -22.4770 C.2    25  ASP25       0.2266
     23  O         18.1120  -17.6060  -22.5410 O.2    25  ASP25      -0.2867
     24  CB        15.2660  -17.3410  -22.8470 C.3    25  ASP25       0.1410
     25  CG        14.9640  -17.5350  -21.3770 C.2    25  ASP25       0.3668
     26  OD1       15.6190  -16.9160  -20.5140 O.co2  25  ASP25      -0.2456
     27  OD2       14.0490  -18.3320  -21.0940 O.co2  25  ASP25      -0.2456
     28  N         18.3200  -16.7520  -19.5080 N.3    27  GLY27      -0.1210
     29  CA        18.1380  -17.6190  -18.3560 C.3    27  GLY27       0.1956
     30  C         18.1050  -19.0900  -18.7310 C.2    27  GLY27       0.2612
     31  O         18.1120  -19.9640  -17.8660 O.2    27  GLY27      -0.2717
     32  N         18.0570  -19.3940  -20.0190 N.am   28  ALA28      -0.1965
     33  CA        17.9980  -20.7530  -20.5310 C.3    28  ALA28       0.1728
     34  C         19.3570  -21.2470  -21.0040 C.2    28  ALA28       0.2616
     35  O         20.0210  -20.6280  -21.8410 O.2    28  ALA28      -0.2715
     36  CB        16.9900  -20.8290  -21.6790 C.3    28  ALA28       0.0334
     37  N         19.8060  -22.3930  -20.4910 N.am   29  ASP29      -0.1957
     38  CA        21.1110  -22.8930  -20.9160 C.3    29  ASP29       0.1840
     39  C         21.1020  -23.3320  -22.3750 C.2    29  ASP29       0.2622
     40  O         22.0430  -23.0990  -23.1290 O.2    29  ASP29      -0.2715
     41  CB        21.5500  -24.0950  -20.0820 C.3    29  ASP29       0.1450
     42  CG        21.9800  -23.7710  -18.6680 C.2    29  ASP29       0.3671
     43  OD1       22.1610  -22.5860  -18.3100 O.co2  29  ASP29      -0.2456
     44  OD2       22.1390  -24.7540  -17.9040 O.co2  29  ASP29      -0.2456
     45  N         20.0260  -23.9980  -22.7440 N.am   30  ASP30      -0.1971
     46  CA        19.8440  -24.6120  -24.0390 C.3    30  ASP30       0.1709
     47  C         18.5680  -24.1080  -24.7130 C.2    30  ASP30       0.2293
     48  O         17.6990  -23.5760  -24.0300 O.2    30  ASP30      -0.2864
     49  CB        19.7350  -26.1320  -23.8990 C.3    30  ASP30       0.1436
     50  CG        20.8440  -26.6970  -23.0300 C.2    30  ASP30       0.3671
     51  OD1       20.5600  -27.2410  -21.9440 O.co2  30  ASP30      -0.2456
     52  OD2       22.0010  -26.5800  -23.4750 O.co2  30  ASP30      -0.2456
     53  N         15.0830  -24.6340  -26.5840 N.3    32  VAL32      -0.1245
     54  CA        13.9670  -25.5670  -26.5810 C.3    32  VAL32       0.1561
     55  C         12.7990  -25.0790  -27.4390 C.2    32  VAL32       0.2260
     56  O         12.2600  -23.9950  -27.2220 O.2    32  VAL32      -0.2867
     57  CB        13.4210  -25.7960  -25.1560 C.3    32  VAL32       0.0252
     58  CG1       12.6100  -27.0860  -25.1590 C.3    32  VAL32       0.0019
     59  CG2       14.5390  -25.8290  -24.1360 C.3    32  VAL32       0.0019
     60  N         15.5580  -31.4600  -18.5910 N.3    47  ILE47      -0.1231
     61  CA        15.8690  -30.0560  -18.3320 C.3    47  ILE47       0.1692
     62  C         15.1120  -29.5940  -17.0910 C.2    47  ILE47       0.2593
     63  O         13.9980  -30.0590  -16.8660 O.2    47  ILE47      -0.2718
     64  CB        15.5470  -29.1340  -19.5180 C.3    47  ILE47       0.0266
     65  CG1       14.1030  -29.1650  -20.0040 C.3    47  ILE47       0.0019
     66  CG2       16.5200  -29.4490  -20.6530 C.3    47  ILE47       0.0020
     67  CD1       13.8500  -28.2810  -21.2110 C.3    47  ILE47       0.0001
     68  N         15.7560  -28.7160  -16.3330 N.am   48  GLY48      -0.1942
     69  CA        15.2090  -28.1960  -15.0910 C.3    48  GLY48       0.2014
     70  C         14.4380  -26.9120  -15.3320 C.2    48  GLY48       0.2639
     71  O         15.0400  -25.8880  -15.6560 O.2    48  GLY48      -0.2714
     72  N         13.1220  -26.9620  -15.1710 N.am   49  GLY49      -0.1939
     73  CA        12.2950  -25.7860  -15.3820 C.3    49  GLY49       0.2014
     74  C         11.7880  -25.2020  -14.0820 C.2    49  GLY49       0.2638
     75  O         12.0870  -25.7160  -13.0070 O.2    49  GLY49      -0.2714
     76  N         11.0080  -24.1290  -14.1690 N.am   50  ILE50      -0.1977
     77  CA        10.5100  -23.4450  -12.9830 C.3    50  ILE50       0.1596
     78  C          9.6210  -24.3230  -12.1180 C.2    50  ILE50       0.2287
     79  O          9.4980  -24.1120  -10.9160 O.2    50  ILE50      -0.2864
     80  CB         9.6820  -22.1930  -13.3430 C.3    50  ILE50       0.0276
     81  CG1        9.3750  -21.3010  -12.1370 C.3    50  ILE50       0.0022
     82  CG2        8.4060  -22.5870  -14.0730 C.3    50  ILE50       0.0022
     83  CD1       10.4480  -20.2590  -11.8890 C.3    50  ILE50       0.0001
     84  N          6.3200  -23.6260  -23.1050 N.3    81  PRO81      -0.2102
     85  CA         5.2530  -22.6340  -23.3000 C.3    81  PRO81       0.1504
     86  C          5.4330  -21.7900  -24.5560 C.2    81  PRO81       0.2575
     87  O          4.4810  -21.2880  -25.1530 O.2    81  PRO81      -0.2718
     88  CB         5.3790  -21.7330  -22.0700 C.3    81  PRO81       0.0282
     89  CG         6.0740  -22.5640  -21.0520 C.3    81  PRO81       0.0208
     90  CD         7.0170  -23.4350  -21.8220 C.3    81  PRO81       0.0893
     91  N          6.6900  -21.6250  -24.9510 N.am   82  VAL82      -0.1980
     92  CA         7.0710  -20.8380  -26.1110 C.3    82  VAL82       0.1595
     93  C          8.4100  -21.3600  -26.6350 C.2    82  VAL82       0.2287
     94  O          9.1720  -21.9430  -25.8670 O.2    82  VAL82      -0.2864
     95  CB         7.2180  -19.3440  -25.8010 C.3    82  VAL82       0.0276
     96  CG1        8.4060  -19.1200  -24.8740 C.3    82  VAL82       0.0022
     97  CG2        7.4010  -18.5250  -27.0700 C.3    82  VAL82       0.0022
     98  N         12.0530  -21.2520  -27.1620 N.3    84  ILE84      -0.1245
     99  CA        13.0950  -20.5290  -26.4410 C.3    84  ILE84       0.1561
    100  C         14.4960  -20.7170  -27.0050 C.2    84  ILE84       0.2260
    101  O         14.9710  -21.8380  -27.1580 O.2    84  ILE84      -0.2867
    102  CB        13.1070  -20.9880  -24.9660 C.3    84  ILE84       0.0252
    103  CG1       11.8480  -20.5380  -24.2260 C.3    84  ILE84       0.0019
    104  CG2       14.3880  -20.5370  -24.2960 C.3    84  ILE84       0.0019
    105  CD1       11.5560  -21.2990  -22.9600 C.3    84  ILE84       0.0001
@<TRIPOS>BOND
     1    12    13    1
     2    55    56    2
     3    55    54    1
     4    98    99    1
     5   101   100    2
     6    13    14    1
     7    13    16    1
     8    97    95    1
     9   100    99    1
    10    14    15    2
    11     4     3    2
    12    93    92    1
    13    93    94    2
    14    53    54    1
    15    54    57    1
    16    99   102    1
    17    92    95    1
    18    92    91    1
    19    16    17    1
    20    95    96    1
    21     3     2    1
    22    58    57    1
    23    57    59    1
    24    87    86    2
    25   102   104    1
    26   102   103    1
    27    91    86   am
    28    18    17    1
    29    47    46    1
    30    47    48    2
    31     5     2    1
    32     5     6    1
    33    17    19    1
    34    86    85    1
    35    20    21    1
    36     2     1    1
    37   103   105    1
    38    46    49    1
    39    46    45    1
    40    49    50    1
    41     7     6    1
    42     7     8    1
    43    52    50   ar
    44    85    84    1
    45    85    88    1
    46    40    39    2
    47    84    90    1
    48    21    24    1
    49    21    22    1
    50    50    51   ar
    51    24    25    1
    52    45    39   am
    53    23    22    2
    54     8     9    2
    55    39    38    1
    56    88    89    1
    57    10     9    1
    58    35    34    2
    59    90    89    1
    60    36    33    1
    61     9    11    1
    62    25    27   ar
    63    25    26   ar
    64    67    65    1
    65    34    33    1
    66    34    37   am
    67    38    37    1
    68    38    41    1
    69    66    64    1
    70    33    32    1
    71    41    42    1
    72    32    30   am
    73    65    64    1
    74    64    61    1
    75    28    29    1
    76    30    29    1
    77    30    31    2
    78    42    43   ar
    79    42    44   ar
    80    60    61    1
    81    61    62    1
    82    62    63    2
    83    62    68   am
    84    68    69    1
    85    71    70    2
    86    73    72    1
    87    73    74    1
    88    70    72   am
    89    70    69    1
    90    76    74   am
    91    76    77    1
    92    74    75    2
    93    82    80    1
    94    80    77    1
    95    80    81    1
    96    77    78    1
    97    81    83    1
    98    78    79    2
