@<TRIPOS>MOLECULE
tmp/3bgcB00.pdb
 112 105 0 0 0
SMALL
GASTEIGER

@<TRIPOS>ATOM
      1  N         -8.6270    8.4570  -24.2400 N.3     8  ARG8       -0.1245
      2  CA        -9.3430    9.7200  -24.4180 C.3     8  ARG8        0.1563
      3  C        -10.2220    9.6750  -25.6580 C.2     8  ARG8        0.2260
      4  O         -9.7780    9.1940  -26.7120 O.2     8  ARG8       -0.2867
      5  CB        -8.3220   10.8480  -24.5050 C.3     8  ARG8        0.0307
      6  CG        -7.5460   11.1020  -23.2220 C.3     8  ARG8        0.0489
      7  CD        -6.8420   12.4450  -23.3760 C.3     8  ARG8        0.2205
      8  NE        -5.6190   12.5710  -22.6140 N.pl3   8  ARG8       -0.0865
      9  CZ        -5.4100   13.1670  -21.4550 C.cat   8  ARG8        0.5346
     10  NH1       -6.3940   13.7650  -20.7950 N.pl3   8  ARG8        0.1354
     11  NH2       -4.1820   13.1640  -20.9370 N.pl3   8  ARG8        0.1354
     12  N        -11.5510   16.6460  -28.1800 N.3    23  LEU23      -0.1245
     13  CA       -11.9800   15.7790  -27.1020 C.3    23  LEU23       0.1561
     14  C        -13.4720   15.9120  -26.8280 C.2    23  LEU23       0.2260
     15  O        -13.9080   17.0390  -26.5670 O.2    23  LEU23      -0.2867
     16  CB       -11.2030   16.1940  -25.8580 C.3    23  LEU23       0.0270
     17  CG       -11.3360   15.3440  -24.6000 C.3    23  LEU23       0.0019
     18  CD1      -10.7010   13.9760  -24.8070 C.3    23  LEU23       0.0001
     19  CD2      -10.7080   16.0900  -23.4300 C.3    23  LEU23       0.0001
     20  N        -16.2380   16.0170  -24.5010 N.3    25  ASP25      -0.1239
     21  CA       -16.1680   16.2810  -23.0730 C.3    25  ASP25       0.1674
     22  C        -17.5480   16.5220  -22.4790 C.2    25  ASP25       0.2266
     23  O        -18.0990   17.6160  -22.5680 O.2    25  ASP25      -0.2867
     24  CB       -15.2450   17.4810  -22.8290 C.3    25  ASP25       0.1410
     25  CG       -14.8110   17.5850  -21.3830 C.2    25  ASP25       0.3668
     26  OD1      -15.4800   16.9760  -20.5210 O.co2  25  ASP25      -0.2456
     27  OD2      -13.8130   18.2750  -21.0970 O.co2  25  ASP25      -0.2456
     28  N        -18.2230   16.7910  -19.5000 N.3    27  GLY27      -0.1210
     29  CA       -17.9910   17.6870  -18.3850 C.3    27  GLY27       0.1956
     30  C        -18.0670   19.1590  -18.7740 C.2    27  GLY27       0.2612
     31  O        -18.1840   20.0190  -17.9020 O.2    27  GLY27      -0.2717
     32  N        -17.9890   19.4580  -20.0580 N.am   28  ALA28      -0.1965
     33  CA       -17.9710   20.7990  -20.6030 C.3    28  ALA28       0.1728
     34  C        -19.3450   21.2490  -21.0900 C.2    28  ALA28       0.2616
     35  O        -19.9910   20.6080  -21.9140 O.2    28  ALA28      -0.2715
     36  CB       -16.9800   20.9100  -21.7560 C.3    28  ALA28       0.0334
     37  N        -19.7830   22.3830  -20.5510 N.am   29  ASP29      -0.1957
     38  CA       -21.0760   22.9300  -20.9570 C.3    29  ASP29       0.1840
     39  C        -21.0250   23.4050  -22.4060 C.2    29  ASP29       0.2622
     40  O        -21.9740   23.3020  -23.1650 O.2    29  ASP29      -0.2715
     41  CB       -21.5070   24.1260  -20.1210 C.3    29  ASP29       0.1450
     42  CG       -21.8860   23.8340  -18.6880 C.2    29  ASP29       0.3671
     43  OD1      -22.0170   22.6670  -18.2670 O.co2  29  ASP29      -0.2456
     44  OD2      -22.0510   24.8330  -17.9500 O.co2  29  ASP29      -0.2456
     45  N        -19.8680   23.9670  -22.7420 N.am   30  ASP30      -0.1971
     46  CA       -19.6830   24.6200  -24.0200 C.3    30  ASP30       0.1709
     47  C        -18.4330   24.1070  -24.7300 C.2    30  ASP30       0.2293
     48  O        -17.5380   23.5440  -24.1150 O.2    30  ASP30      -0.2864
     49  CB       -19.5280   26.1330  -23.8350 C.3    30  ASP30       0.1436
     50  CG       -20.6190   26.7400  -22.9770 C.2    30  ASP30       0.3671
     51  OD1      -20.3110   27.2430  -21.8780 O.co2  30  ASP30      -0.2456
     52  OD2      -21.7760   26.7050  -23.4180 O.co2  30  ASP30      -0.2456
     53  N        -14.9910   24.6500  -26.5750 N.3    32  VAL32      -0.1245
     54  CA       -13.8430   25.5290  -26.4990 C.3    32  VAL32       0.1561
     55  C        -12.7030   25.0470  -27.4030 C.2    32  VAL32       0.2260
     56  O        -12.2010   23.9330  -27.2370 O.2    32  VAL32      -0.2867
     57  CB       -13.2730   25.6320  -25.0690 C.3    32  VAL32       0.0252
     58  CG1      -12.2970   26.8050  -25.0250 C.3    32  VAL32       0.0019
     59  CG2      -14.3370   25.8040  -24.0060 C.3    32  VAL32       0.0019
     60  N        -15.3510   31.5720  -18.5930 N.3    47  ILE47      -0.1231
     61  CA       -15.6530   30.1790  -18.2920 C.3    47  ILE47       0.1692
     62  C        -14.8540   29.7150  -17.0690 C.2    47  ILE47       0.2593
     63  O        -13.7470   30.1770  -16.8310 O.2    47  ILE47      -0.2718
     64  CB       -15.3470   29.2390  -19.4620 C.3    47  ILE47       0.0266
     65  CG1      -13.9060   29.3390  -19.9620 C.3    47  ILE47       0.0019
     66  CG2      -16.3400   29.4530  -20.5920 C.3    47  ILE47       0.0020
     67  CD1      -13.6070   28.3210  -21.0560 C.3    47  ILE47       0.0001
     68  N        -15.4670   28.8070  -16.3260 N.am   48  GLY48      -0.1942
     69  CA       -14.9290   28.2640  -15.0980 C.3    48  GLY48       0.2014
     70  C        -14.2530   26.9280  -15.2860 C.2    48  GLY48       0.2639
     71  O        -14.9060   25.9430  -15.6350 O.2    48  GLY48      -0.2714
     72  N        -12.9420   26.8710  -15.0620 N.am   49  GLY49      -0.1939
     73  CA       -12.2150   25.6150  -15.1360 C.3    49  GLY49       0.2014
     74  C        -11.7890   25.1540  -13.7600 C.2    49  GLY49       0.2638
     75  O        -12.1520   25.7250  -12.7330 O.2    49  GLY49      -0.2714
     76  N        -10.9870   24.0880  -13.7250 N.am   50  ILE50      -0.1977
     77  CA       -10.5970   23.5870  -12.4120 C.3    50  ILE50       0.1596
     78  C         -9.6940   24.5800  -11.6820 C.2    50  ILE50       0.2287
     79  O         -9.7300   24.6030  -10.4520 O.2    50  ILE50      -0.2864
     80  CB        -9.8770   22.2310  -12.4580 C.3    50  ILE50       0.0276
     81  CG1       -9.9790   21.4530  -11.1430 C.3    50  ILE50       0.0022
     82  CG2       -8.4160   22.3840  -12.8510 C.3    50  ILE50       0.0022
     83  CD1       -9.5900   19.9970  -11.3170 C.3    50  ILE50       0.0001
     84  N         -7.0700   26.4910  -24.3350 N.3    80  THR80      -0.1204
     85  CA        -7.4650   25.1990  -23.7670 C.3    80  THR80       0.1979
     86  C         -6.3710   24.1810  -24.0360 C.2    80  THR80       0.2460
     87  O         -5.7290   24.2190  -25.0930 O.2    80  THR80      -0.2732
     88  CB        -8.8230   24.7460  -24.3310 C.3    80  THR80       0.1783
     89  OG1       -9.0630   23.3960  -23.9380 O.3    80  THR80      -0.2211
     90  CG2       -8.8270   24.7720  -25.8570 C.3    80  THR80       0.0376
     91  N         -6.0900   23.2710  -23.1040 N.am   81  PRO81      -0.2717
     92  CA        -5.0580   22.2630  -23.3610 C.3    81  PRO81       0.1535
     93  C         -5.3420   21.4820  -24.6300 C.2    81  PRO81       0.2598
     94  O         -4.4060   21.0550  -25.2900 O.2    81  PRO81      -0.2715
     95  CB        -5.1500   21.3430  -22.1490 C.3    81  PRO81       0.0310
     96  CG        -5.6990   22.2190  -21.0790 C.3    81  PRO81       0.0237
     97  CD        -6.6810   23.1310  -21.7700 C.3    81  PRO81       0.0939
     98  N         -6.6250   21.3140  -24.9670 N.am   82  VAL82      -0.1978
     99  CA        -6.9670   20.6330  -26.2110 C.3    82  VAL82       0.1596
    100  C         -8.3600   21.0970  -26.6390 C.2    82  VAL82       0.2287
    101  O         -9.1750   21.4720  -25.7970 O.2    82  VAL82      -0.2864
    102  CB        -6.9300   19.0990  -26.1250 C.3    82  VAL82       0.0276
    103  CG1       -8.0820   18.5530  -25.3020 C.3    82  VAL82       0.0022
    104  CG2       -6.9740   18.4530  -27.5050 C.3    82  VAL82       0.0022
    105  N        -12.0150   21.0990  -27.1270 N.3    84  ILE84      -0.1245
    106  CA       -13.0540   20.3240  -26.4590 C.3    84  ILE84       0.1561
    107  C        -14.4380   20.6230  -27.0510 C.2    84  ILE84       0.2260
    108  O        -14.8260   21.7770  -27.2110 O.2    84  ILE84      -0.2867
    109  CB       -13.0940   20.5710  -24.9410 C.3    84  ILE84       0.0252
    110  CG1      -13.5350   21.9760  -24.5490 C.3    84  ILE84       0.0019
    111  CG2      -11.7480   20.2270  -24.3150 C.3    84  ILE84       0.0019
    112  CD1      -12.6540   22.6230  -23.5030 C.3    84  ILE84       0.0001
@<TRIPOS>BOND
     1    12    13    1
     2   104   102    1
     3    55    56    2
     4    55    54    1
     5   108   107    2
     6   105   106    1
     7    13    14    1
     8    13    16    1
     9   107   106    1
    10    14    15    2
    11     4     3    2
    12   100    99    1
    13   100   101    2
    14    53    54    1
    15    54    57    1
    16   106   109    1
    17    99   102    1
    18    99    98    1
    19   102   103    1
    20    16    17    1
    21    90    88    1
    22     3     2    1
    23    94    93    2
    24    87    86    2
    25    57    58    1
    26    57    59    1
    27    98    93   am
    28   109   110    1
    29   109   111    1
    30    18    17    1
    31    47    48    2
    32    47    46    1
    33    93    92    1
    34    17    19    1
    35   110   112    1
    36     5     2    1
    37     5     6    1
    38    20    21    1
    39     2     1    1
    40    84    85    1
    41    88    89    1
    42    88    85    1
    43    86    85    1
    44    86    91   am
    45    46    49    1
    46    46    45    1
    47    49    50    1
    48    52    50   ar
    49     7     6    1
    50     7     8    1
    51    92    91    1
    52    92    95    1
    53    40    39    2
    54    91    97    1
    55    21    24    1
    56    21    22    1
    57    50    51   ar
    58    24    25    1
    59    45    39   am
    60     8     9    2
    61    23    22    2
    62    39    38    1
    63    95    96    1
    64    35    34    2
    65    97    96    1
    66    36    33    1
    67     9    11    1
    68     9    10    1
    69    25    27   ar
    70    25    26   ar
    71    34    33    1
    72    34    37   am
    73    67    65    1
    74    38    37    1
    75    38    41    1
    76    33    32    1
    77    66    64    1
    78    41    42    1
    79    32    30   am
    80    65    64    1
    81    28    29    1
    82    64    61    1
    83    30    29    1
    84    30    31    2
    85    42    43   ar
    86    42    44   ar
    87    60    61    1
    88    61    62    1
    89    62    63    2
    90    62    68   am
    91    68    69    1
    92    71    70    2
    93    70    69    1
    94    70    72   am
    95    73    72    1
    96    73    74    1
    97    74    76   am
    98    74    75    2
    99    76    77    1
   100    82    80    1
   101    80    77    1
   102    80    81    1
   103    77    78    1
   104    78    79    2
   105    83    81    1
