@<TRIPOS>MOLECULE
tmp/3bgdB01.pdb
 115 115 0 0 0
SMALL
GASTEIGER

@<TRIPOS>ATOM
      1  N        -14.8060   63.5290   64.0910 N.3    16  TRP16      -0.1241
      2  CA       -16.2370   63.8630   64.0320 C.3    16  TRP16       0.1605
      3  C        -16.8010   64.2680   65.3750 C.2    16  TRP16       0.2264
      4  O        -17.5590   65.2320   65.4530 O.2    16  TRP16      -0.2867
      5  CB       -17.0260   62.6710   63.4950 C.3    16  TRP16       0.0550
      6  CG       -17.0060   62.5230   61.9450 C.ar   16  TRP16       0.0003
      7  CD1      -16.4160   61.5160   61.2250 C.ar   16  TRP16       0.0946
      8  CD2      -17.6430   63.3810   60.9920 C.ar   16  TRP16       0.0152
      9  NE1      -16.6460   61.6980   59.8830 N.ar   16  TRP16      -0.2442
     10  CE2      -17.3830   62.8500   59.7130 C.ar   16  TRP16       0.0810
     11  CE3      -18.4090   64.5670   61.1040 C.ar   16  TRP16       0.0012
     12  CZ2      -17.8620   63.4430   58.5430 C.ar   16  TRP16       0.0191
     13  CZ3      -18.8730   65.1760   59.9450 C.ar   16  TRP16       0.0001
     14  CH2      -18.6020   64.6090   58.6690 C.ar   16  TRP16       0.0015
     15  N        -21.4350   72.5710   60.1820 N.3    26  SER26      -0.1202
     16  CA       -22.0710   73.3090   59.0940 C.3    26  SER26       0.2020
     17  C        -22.9210   72.4120   58.1930 C.2    26  SER26       0.2618
     18  O        -23.6790   72.9150   57.3540 O.2    26  SER26      -0.2717
     19  CB       -21.0270   74.0490   58.2530 C.3    26  SER26       0.2103
     20  OG       -20.1080   73.1480   57.6460 O.3    26  SER26      -0.2182
     21  N        -22.7890   71.0940   58.3440 N.am   27  PHE27      -0.1975
     22  CA       -23.6040   70.1560   57.5680 C.3    27  PHE27       0.1639
     23  C        -25.1140   70.1880   57.9460 C.2    27  PHE27       0.2290
     24  O        -25.9720   69.7810   57.1470 O.2    27  PHE27      -0.2864
     25  CB       -23.0550   68.7410   57.7530 C.3    27  PHE27       0.0560
     26  CG       -22.8870   68.3540   59.2080 C.ar   27  PHE27      -0.0200
     27  CD1      -23.9870   67.9990   59.9800 C.ar   27  PHE27      -0.0042
     28  CD2      -21.6490   68.3780   59.8040 C.ar   27  PHE27      -0.0042
     29  CE1      -23.8660   67.6600   61.2970 C.ar   27  PHE27      -0.0003
     30  CE2      -21.5070   68.0070   61.1470 C.ar   27  PHE27      -0.0003
     31  CZ       -22.6200   67.6830   61.8930 C.ar   27  PHE27      -0.0000
     32  N        -28.7510   61.0470   53.8170 N.3   139  ARG139     -0.1231
     33  CA       -28.1100   62.2850   53.3730 C.3   139  ARG139      0.1694
     34  C        -27.0700   62.7080   54.3800 C.2   139  ARG139      0.2592
     35  O        -27.2340   62.4940   55.5750 O.2   139  ARG139     -0.2718
     36  CB       -29.1140   63.3980   53.0580 C.3   139  ARG139      0.0321
     37  CG       -29.4770   64.3280   54.1830 C.3   139  ARG139      0.0489
     38  CD       -28.3470   65.2330   54.6540 C.3   139  ARG139      0.2205
     39  NE       -27.9800   66.4000   53.8370 N.pl3 139  ARG139     -0.0865
     40  CZ       -27.3640   67.4510   54.3840 C.cat 139  ARG139      0.5346
     41  NH1      -26.9980   68.5000   53.6760 N.pl3 139  ARG139      0.1354
     42  NH2      -27.1080   67.4460   55.6920 N.pl3 139  ARG139      0.1354
     43  N        -25.9840   63.2830   53.9060 N.am  140  GLY140     -0.1957
     44  CA       -24.8720   63.6120   54.7630 C.3   140  GLY140      0.1869
     45  C        -24.2510   62.3530   55.3110 C.2   140  GLY140      0.2309
     46  O        -23.4800   62.3940   56.2530 O.2   140  GLY140     -0.2863
     47  N        -22.1230   60.3860   51.8220 N.3   143  VAL143     -0.1231
     48  CA       -21.1060   61.3710   51.4520 C.3   143  VAL143      0.1692
     49  C        -20.1690   61.7720   52.6000 C.2   143  VAL143      0.2591
     50  O        -19.2490   62.5630   52.3790 O.2   143  VAL143     -0.2718
     51  CB       -21.6900   62.6420   50.7720 C.3   143  VAL143      0.0266
     52  CG1      -22.2520   62.2740   49.4350 C.3   143  VAL143      0.0020
     53  CG2      -22.7770   63.2910   51.6370 C.3   143  VAL143      0.0020
     54  N        -20.3610   61.2170   53.8050 N.am  144  ALA144     -0.1980
     55  CA       -19.5470   61.6550   54.9630 C.3   144  ALA144      0.1597
     56  C        -18.6170   60.5490   55.3350 C.2   144  ALA144      0.2287
     57  O        -17.6130   60.7600   56.0140 O.2   144  ALA144     -0.2864
     58  CB       -20.4310   62.0410   56.2060 C.3   144  ALA144      0.0319
     59  N        -23.5610   64.5800   46.1600 N.3   172  LEU172     -0.1245
     60  CA       -23.1890   65.9150   45.7020 C.3   172  LEU172      0.1561
     61  C        -22.1250   65.8470   44.5910 C.2   172  LEU172      0.2260
     62  O        -21.1370   65.1410   44.7180 O.2   172  LEU172     -0.2867
     63  CB       -22.6600   66.7450   46.8890 C.3   172  LEU172      0.0270
     64  CG       -23.6880   66.9580   48.0080 C.3   172  LEU172      0.0019
     65  CD1      -23.0120   67.3200   49.3270 C.3   172  LEU172      0.0001
     66  CD2      -24.6620   68.0200   47.6040 C.3   172  LEU172      0.0001
     67  N        -15.0380   65.7410   54.1330 N.3   182  PRO182     -0.2103
     68  CA       -16.4610   65.6040   53.7780 C.3   182  PRO182      0.1489
     69  C        -17.1110   66.9650   53.5200 C.2   182  PRO182      0.2417
     70  O        -16.6020   67.9810   53.9830 O.2   182  PRO182     -0.2734
     71  CB       -17.0930   64.9470   55.0230 C.3   182  PRO182      0.0282
     72  CG       -15.9920   64.5300   55.8790 C.3   182  PRO182      0.0208
     73  CD       -14.8050   65.4150   55.5480 C.3   182  PRO182      0.0893
     74  N        -18.2100   66.9930   52.7390 N.am  183  PRO183     -0.2729
     75  CA       -18.7560   65.7890   52.1470 C.3   183  PRO183      0.1401
     76  C        -17.8860   65.3680   50.9860 C.2   183  PRO183      0.2269
     77  O        -17.4140   66.2020   50.2590 O.2   183  PRO183     -0.2865
     78  CB       -20.1570   66.2080   51.6820 C.3   183  PRO183      0.0296
     79  CG       -20.1040   67.6780   51.5070 C.3   183  PRO183      0.0237
     80  CD       -18.9800   68.2000   52.3920 C.3   183  PRO183      0.0939
     81  N        -21.1990   79.6650   50.9960 N.3   213  ARG213     -0.1231
     82  CA       -20.3770   78.8440   51.8780 C.3   213  ARG213      0.1694
     83  C        -19.4370   77.9550   51.0630 C.2   213  ARG213      0.2592
     84  O        -18.2750   77.7380   51.4350 O.2   213  ARG213     -0.2718
     85  CB       -21.2660   77.9700   52.7640 C.3   213  ARG213      0.0321
     86  CG       -20.5030   77.1520   53.7980 C.3   213  ARG213      0.0489
     87  CD       -21.4530   76.5050   54.8010 C.3   213  ARG213      0.2205
     88  NE       -22.1790   75.3710   54.2270 N.pl3 213  ARG213     -0.0865
     89  CZ       -21.6600   74.1540   54.0810 C.cat 213  ARG213      0.5346
     90  NH1      -20.4090   73.9230   54.4550 N.pl3 213  ARG213      0.1354
     91  NH2      -22.3820   73.1700   53.5550 N.pl3 213  ARG213      0.1354
     92  N        -19.9570   77.4400   49.9500 N.am  214  HIS214     -0.1976
     93  CA       -19.1980   76.5450   49.0700 C.3   214  HIS214      0.1656
     94  C        -18.3180   77.3160   48.1050 C.2   214  HIS214      0.2291
     95  O        -17.3670   76.7690   47.5480 O.2   214  HIS214     -0.2864
     96  CB       -20.1520   75.6820   48.2580 C.3   214  HIS214      0.0771
     97  CG       -21.2310   75.0520   49.0710 C.ar  214  HIS214      0.0820
     98  ND1      -22.5450   75.4620   49.0070 N.ar  214  HIS214     -0.2267
     99  CD2      -21.1910   74.0390   49.9650 C.ar  214  HIS214      0.1154
    100  CE1      -23.2680   74.7250   49.8270 C.ar  214  HIS214      0.1986
    101  NE2      -22.4700   73.8530   50.4210 N.ar  214  HIS214     -0.2212
    102  N        -15.4870   77.4140   49.8970 N.3   217  TRP217     -0.1241
    103  CA       -14.7860   76.1260   49.7320 C.3   217  TRP217      0.1605
    104  C        -13.8680   76.1500   48.5130 C.2   217  TRP217      0.2264
    105  O        -13.0040   75.2830   48.3640 O.2   217  TRP217     -0.2867
    106  CB       -15.7620   74.9590   49.5460 C.3   217  TRP217      0.0550
    107  CG       -16.3130   74.3790   50.8040 C.ar  217  TRP217      0.0003
    108  CD1      -15.9830   74.7250   52.0880 C.ar  217  TRP217      0.0946
    109  CD2      -17.2750   73.3220   50.9070 C.ar  217  TRP217      0.0152
    110  NE1      -16.6980   73.9620   52.9800 N.ar  217  TRP217     -0.2442
    111  CE2      -17.4970   73.0910   52.2840 C.ar  217  TRP217      0.0810
    112  CE3      -17.9820   72.5580   49.9720 C.ar  217  TRP217      0.0012
    113  CZ2      -18.3940   72.1230   52.7460 C.ar  217  TRP217      0.0191
    114  CZ3      -18.8690   71.5990   50.4290 C.ar  217  TRP217      0.0001
    115  CH2      -19.0690   71.3930   51.8060 C.ar  217  TRP217      0.0015
@<TRIPOS>BOND
     1    61    62    2
     2    61    60    1
     3    60    59    1
     4    60    63    1
     5    63    64    1
     6    95    94    2
     7    66    64    1
     8    64    65    1
     9    94    93    1
    10    96    93    1
    11    96    97    1
    12   105   104    2
    13   104   103    1
    14    98    97   ar
    15    98   100   ar
    16    93    92    1
    17    97    99   ar
    18    52    51    1
    19   106   103    1
    20   106   107    1
    21   103   102    1
    22   100   101   ar
    23    92    83   am
    24    99   101   ar
    25   112   114   ar
    26   112   109   ar
    27    77    76    2
    28   114   115   ar
    29    51    48    1
    30    51    53    1
    31   107   109   ar
    32   107   108   ar
    33   109   111   ar
    34    76    75    1
    35    81    82    1
    36    83    84    2
    37    83    82    1
    38    48    47    1
    39    48    49    1
    40    79    78    1
    41    79    80    1
    42    78    75    1
    43   115   113   ar
    44    82    85    1
    45   108   110   ar
    46    75    74    1
    47   111   113   ar
    48   111   110   ar
    49    50    49    2
    50    80    74    1
    51    49    54   am
    52    74    69   am
    53    85    86    1
    54    36    33    1
    55    36    37    1
    56    33    32    1
    57    33    34    1
    58    69    68    1
    59    69    70    2
    60    91    89    1
    61    41    40    1
    62    68    67    1
    63    68    71    1
    64    86    87    1
    65    54    55    1
    66    39    40    2
    67    39    38    1
    68    43    34   am
    69    43    44    1
    70    89    88    2
    71    89    90    1
    72    67    73    1
    73    37    38    1
    74    88    87    1
    75    34    35    2
    76    40    42    1
    77    44    45    1
    78    55    56    1
    79    55    58    1
    80    71    72    1
    81    45    46    2
    82    56    57    2
    83    73    72    1
    84    24    23    2
    85    18    17    2
    86    22    25    1
    87    22    23    1
    88    22    21    1
    89    20    19    1
    90    25    26    1
    91    17    21   am
    92    17    16    1
    93    19    16    1
    94    12    14   ar
    95    12    10   ar
    96    14    13   ar
    97    16    15    1
    98    26    28   ar
    99    26    27   ar
   100    10     9   ar
   101    10     8   ar
   102    28    30   ar
   103     9     7   ar
   104    13    11   ar
   105    27    29   ar
   106     8    11   ar
   107     8     6   ar
   108    30    31   ar
   109     7     6   ar
   110    29    31   ar
   111     6     5    1
   112     5     2    1
   113     2     1    1
   114     2     3    1
   115     3     4    2
