@<TRIPOS>MOLECULE
tmp/3bgdB00.pdb
 208 207 0 0 0
SMALL
GASTEIGER

@<TRIPOS>ATOM
      1  N        -13.3890   58.7890   63.6740 N.3    13  LEU13      -0.1245
      2  CA       -14.5080   58.9030   64.6180 C.3    13  LEU13       0.1561
      3  C        -14.2530   60.0310   65.6110 C.2    13  LEU13       0.2260
      4  O        -15.1810   60.7750   65.9850 O.2    13  LEU13      -0.2867
      5  CB       -14.7430   57.5560   65.3430 C.3    13  LEU13       0.0270
      6  CG       -15.2110   56.4030   64.4400 C.3    13  LEU13       0.0019
      7  CD1      -15.4110   55.0810   65.1880 C.3    13  LEU13       0.0001
      8  CD2      -16.4650   56.8160   63.7200 C.3    13  LEU13       0.0001
      9  N        -14.8060   63.5290   64.0910 N.3    16  TRP16      -0.1241
     10  CA       -16.2370   63.8630   64.0320 C.3    16  TRP16       0.1605
     11  C        -16.8010   64.2680   65.3750 C.2    16  TRP16       0.2264
     12  O        -17.5590   65.2320   65.4530 O.2    16  TRP16      -0.2867
     13  CB       -17.0260   62.6710   63.4950 C.3    16  TRP16       0.0550
     14  CG       -17.0060   62.5230   61.9450 C.ar   16  TRP16       0.0003
     15  CD1      -16.4160   61.5160   61.2250 C.ar   16  TRP16       0.0946
     16  CD2      -17.6430   63.3810   60.9920 C.ar   16  TRP16       0.0152
     17  NE1      -16.6460   61.6980   59.8830 N.ar   16  TRP16      -0.2442
     18  CE2      -17.3830   62.8500   59.7130 C.ar   16  TRP16       0.0810
     19  CE3      -18.4090   64.5670   61.1040 C.ar   16  TRP16       0.0012
     20  CZ2      -17.8620   63.4430   58.5430 C.ar   16  TRP16       0.0191
     21  CZ3      -18.8730   65.1760   59.9450 C.ar   16  TRP16       0.0001
     22  CH2      -18.6020   64.6090   58.6690 C.ar   16  TRP16       0.0015
     23  N        -18.4060   68.1860   66.7860 N.3    20  TRP20      -0.1241
     24  CA       -19.5620   68.4440   67.6740 C.3    20  TRP20       0.1605
     25  C        -19.1990   69.1880   68.9640 C.2    20  TRP20       0.2264
     26  O        -19.8710   70.1380   69.3410 O.2    20  TRP20      -0.2867
     27  CB       -20.3220   67.1490   68.0010 C.3    20  TRP20       0.0550
     28  CG       -21.2050   66.7030   66.8560 C.ar   20  TRP20       0.0003
     29  CD1      -20.9110   65.7770   65.8910 C.ar   20  TRP20       0.0946
     30  CD2      -22.5180   67.1790   66.5670 C.ar   20  TRP20       0.0152
     31  NE1      -21.9730   65.6350   65.0290 N.ar   20  TRP20      -0.2442
     32  CE2      -22.9690   66.4890   65.4150 C.ar   20  TRP20       0.0810
     33  CE3      -23.3690   68.1180   67.1820 C.ar   20  TRP20       0.0012
     34  CZ2      -24.2280   66.7290   64.8420 C.ar   20  TRP20       0.0191
     35  CZ3      -24.6310   68.3540   66.6120 C.ar   20  TRP20       0.0001
     36  CH2      -25.0410   67.6650   65.4560 C.ar   20  TRP20       0.0015
     37  N        -22.7890   71.0940   58.3440 N.3    27  PHE27      -0.1227
     38  CA       -23.6040   70.1560   57.5680 C.3    27  PHE27       0.1736
     39  C        -25.1140   70.1880   57.9460 C.2    27  PHE27       0.2595
     40  O        -25.9720   69.7810   57.1470 O.2    27  PHE27      -0.2718
     41  CB       -23.0550   68.7410   57.7530 C.3    27  PHE27       0.0547
     42  CG       -22.8870   68.3540   59.2080 C.ar   27  PHE27      -0.0202
     43  CD1      -23.9870   67.9990   59.9800 C.ar   27  PHE27      -0.0042
     44  CD2      -21.6490   68.3780   59.8040 C.ar   27  PHE27      -0.0042
     45  CE1      -23.8660   67.6600   61.2970 C.ar   27  PHE27      -0.0003
     46  CE2      -21.5070   68.0070   61.1470 C.ar   27  PHE27      -0.0003
     47  CZ       -22.6200   67.6830   61.8930 C.ar   27  PHE27      -0.0000
     48  N        -25.4400   70.6640   59.1490 N.am   28  HIS28      -0.1961
     49  CA       -26.8160   70.6130   59.6600 C.3    28  HIS28       0.1787
     50  C        -27.7420   71.5970   58.9570 C.2    28  HIS28       0.2620
     51  O        -27.3760   72.7500   58.7320 O.2    28  HIS28      -0.2715
     52  CB       -26.8750   70.8030   61.1960 C.3    28  HIS28       0.0785
     53  CG       -28.2720   70.7610   61.7640 C.ar   28  HIS28       0.0821
     54  ND1      -29.0130   69.6020   61.8490 N.ar   28  HIS28      -0.2267
     55  CD2      -29.0670   71.7490   62.2550 C.ar   28  HIS28       0.1154
     56  CE1      -30.1920   69.8690   62.3860 C.ar   28  HIS28       0.1986
     57  NE2      -30.2530   71.1660   62.6360 N.ar   28  HIS28      -0.2212
     58  N        -28.9300   71.1150   58.5810 N.am   29  GLN29      -0.1977
     59  CA       -29.9420   71.9390   57.9170 C.3    29  GLN29       0.1601
     60  C        -31.1230   72.1110   58.8500 C.2    29  GLN29       0.2287
     61  O        -31.9240   71.1960   59.0310 O.2    29  GLN29      -0.2864
     62  CB       -30.3920   71.2930   56.6090 C.3    29  GLN29       0.0394
     63  CG       -29.2620   71.0050   55.6420 C.3    29  GLN29       0.0908
     64  CD       -29.7750   70.4370   54.3170 C.2    29  GLN29       0.2608
     65  OE1      -30.5980   69.5170   54.3060 O.2    29  GLN29      -0.2717
     66  NE2      -29.2890   70.9760   53.2030 N.am   29  GLN29      -0.0878
     67  N        -31.9350   55.9840   59.7480 N.3    54  PHE54      -0.1228
     68  CA       -31.1670   57.1450   59.3750 C.3    54  PHE54       0.1721
     69  C        -29.7000   56.8650   59.7060 C.2    54  PHE54       0.2437
     70  O        -29.2840   57.0320   60.8420 O.2    54  PHE54      -0.2733
     71  CB       -31.5940   58.3650   60.2020 C.3    54  PHE54       0.0547
     72  CG       -32.8300   59.0480   59.7060 C.ar   54  PHE54      -0.0202
     73  CD1      -34.0570   58.4050   59.7290 C.ar   54  PHE54      -0.0042
     74  CD2      -32.7750   60.3630   59.2420 C.ar   54  PHE54      -0.0042
     75  CE1      -35.2210   59.0350   59.2630 C.ar   54  PHE54      -0.0003
     76  CE2      -33.9630   61.0130   58.7630 C.ar   54  PHE54      -0.0003
     77  CZ       -35.1830   60.3210   58.7990 C.ar   54  PHE54      -0.0000
     78  N        -28.9170   56.4410   58.7210 N.am   55  PRO55      -0.2718
     79  CA       -27.4370   56.3320   58.9210 C.3    55  PRO55       0.1535
     80  C        -26.7510   57.6740   59.2220 C.2    55  PRO55       0.2598
     81  O        -27.0220   58.6740   58.5450 O.2    55  PRO55      -0.2715
     82  CB       -26.9370   55.8060   57.5620 C.3    55  PRO55       0.0310
     83  CG       -28.0630   56.1390   56.5840 C.3    55  PRO55       0.0237
     84  CD       -29.3300   56.0210   57.3790 C.3    55  PRO55       0.0939
     85  N        -25.8660   57.7190   60.2190 N.am   56  LEU56      -0.1964
     86  CA       -25.0700   58.9490   60.4030 C.3    56  LEU56       0.1728
     87  C        -25.9840   60.1460   60.6080 C.2    56  LEU56       0.2616
     88  O        -25.8630   61.1530   59.9400 O.2    56  LEU56      -0.2715
     89  CB       -24.0880   59.1880   59.2200 C.3    56  LEU56       0.0311
     90  CG       -22.7600   58.4230   59.3210 C.3    56  LEU56       0.0022
     91  CD1      -22.9580   56.8960   59.3310 C.3    56  LEU56       0.0001
     92  CD2      -21.8340   58.8340   58.1590 C.3    56  LEU56       0.0001
     93  N        -26.8990   60.0350   61.5770 N.am   57  CYS57      -0.1954
     94  CA       -28.0870   60.9200   61.6090 C.3    57  CYS57       0.1843
     95  C        -27.8480   62.3470   62.1430 C.2    57  CYS57       0.2626
     96  O        -28.6360   63.2430   61.8590 O.2    57  CYS57      -0.2714
     97  CB       -29.2280   60.2410   62.3970 C.3    57  CYS57       0.0997
     98  SG       -28.8270   59.9190   64.1020 S.3    57  CYS57      -0.0797
     99  N        -26.7860   62.5530   62.9270 N.am   58  GLY58      -0.1940
    100  CA       -26.5320   63.8460   63.5130 C.3    58  GLY58       0.2014
    101  C        -27.7480   64.2440   64.3250 C.2    58  GLY58       0.2639
    102  O        -28.2500   63.4370   65.0770 O.2    58  GLY58      -0.2714
    103  N        -28.2300   65.4740   64.1720 N.am   59  LYS59      -0.1963
    104  CA       -29.5270   65.8600   64.7740 C.3    59  LYS59       0.1728
    105  C        -30.6180   66.1570   63.7210 C.2    59  LYS59       0.2616
    106  O        -31.4140   67.0770   63.8800 O.2    59  LYS59      -0.2715
    107  CB       -29.3550   67.0390   65.7590 C.3    59  LYS59       0.0311
    108  CG       -28.8610   68.3380   65.0950 C.3    59  LYS59       0.0038
    109  CD       -28.4760   69.4220   66.1450 C.3    59  LYS59       0.0206
    110  CE       -28.4100   70.7960   65.4910 C.3    59  LYS59       0.1093
    111  NZ       -27.7700   71.7970   66.3870 N.3    59  LYS59      -0.1314
    112  N        -30.6480   65.3600   62.6530 N.am   60  ALA60      -0.1977
    113  CA       -31.4650   65.6370   61.4970 C.3    60  ALA60       0.1597
    114  C        -32.9040   65.8280   61.9190 C.2    60  ALA60       0.2287
    115  O        -33.5260   64.9030   62.4630 O.2    60  ALA60      -0.2864
    116  CB       -31.3950   64.4680   60.5770 C.3    60  ALA60       0.0319
    117  N        -35.4950   65.6990   60.3080 N.3    62  GLU62      -0.1245
    118  CA       -36.4500   64.8580   59.5480 C.3    62  GLU62       0.1567
    119  C        -36.8780   63.6200   60.3100 C.2    62  GLU62       0.2260
    120  O        -37.9140   63.0150   59.9940 O.2    62  GLU62      -0.2867
    121  CB       -35.8830   64.4690   58.1740 C.3    62  GLU62       0.0388
    122  CG       -35.4520   65.6600   57.2870 C.3    62  GLU62       0.1160
    123  CD       -34.0020   66.0550   57.5130 C.2    62  GLU62       0.3649
    124  OE1      -33.2920   65.2660   58.1610 O.co2  62  GLU62      -0.2457
    125  OE2      -33.5700   67.1450   57.0610 O.co2  62  GLU62      -0.2457
    126  N        -28.2160   56.2080   63.7280 N.3    76  VAL76      -0.1231
    127  CA       -26.9110   55.9170   64.3170 C.3    76  VAL76       0.1692
    128  C        -26.0160   57.1540   64.1630 C.2    76  VAL76       0.2592
    129  O        -25.9690   57.7780   63.0890 O.2    76  VAL76      -0.2718
    130  CB       -26.2730   54.5610   63.7960 C.3    76  VAL76       0.0266
    131  CG1      -25.9860   54.6010   62.3140 C.3    76  VAL76       0.0020
    132  CG2      -24.9700   54.2440   64.5460 C.3    76  VAL76       0.0020
    133  N        -25.3500   57.5170   65.2680 N.am   77  GLU77      -0.1966
    134  CA       -24.6030   58.7660   65.3820 C.3    77  GLU77       0.1733
    135  C        -23.4560   58.5840   66.4080 C.2    77  GLU77       0.2616
    136  O        -23.7080   58.2760   67.5450 O.2    77  GLU77      -0.2715
    137  CB       -25.5560   59.8910   65.8190 C.3    77  GLU77       0.0429
    138  CG       -24.9200   61.2410   66.0860 C.3    77  GLU77       0.1163
    139  CD       -23.9220   61.6540   65.0110 C.2    77  GLU77       0.3649
    140  OE1      -24.2820   61.7080   63.8090 O.co2  77  GLU77      -0.2457
    141  OE2      -22.7690   61.9370   65.3790 O.co2  77  GLU77      -0.2457
    142  N        -22.2030   58.7970   65.9930 N.am   78  ILE78      -0.1977
    143  CA       -21.0660   58.5810   66.8740 C.3    78  ILE78       0.1596
    144  C        -20.9970   59.5810   68.0190 C.2    78  ILE78       0.2287
    145  O        -20.4690   59.2720   69.0950 O.2    78  ILE78      -0.2864
    146  CB       -19.7090   58.5580   66.1230 C.3    78  ILE78       0.0276
    147  CG1      -18.5920   57.9880   67.0280 C.3    78  ILE78       0.0022
    148  CG2      -19.3430   59.9100   65.5430 C.3    78  ILE78       0.0022
    149  CD1      -18.6990   56.4890   67.2520 C.3    78  ILE78       0.0001
    150  N        -22.8920   55.0570   68.6030 N.3   120  CYS120     -0.1221
    151  CA       -21.8180   54.1360   68.2490 C.3   120  CYS120      0.1808
    152  C        -21.4530   54.3550   66.7830 C.2   120  CYS120      0.2602
    153  O        -22.0940   55.1550   66.0870 O.2   120  CYS120     -0.2717
    154  CB       -22.2400   52.6720   68.5110 C.3   120  CYS120      0.0970
    155  SG       -23.5040   51.9440   67.3750 S.3   120  CYS120     -0.0800
    156  N        -20.4300   53.6530   66.3060 N.am  121  SER121     -0.1938
    157  CA       -20.0730   53.7090   64.8800 C.3   121  SER121      0.2055
    158  C        -21.0330   52.8590   64.0680 C.2   121  SER121      0.2643
    159  O        -21.4430   51.7680   64.4960 O.2   121  SER121     -0.2714
    160  CB       -18.6280   53.2120   64.6510 C.3   121  SER121      0.2130
    161  OG       -18.3860   53.0800   63.2470 O.3   121  SER121     -0.2179
    162  N        -21.3880   53.3100   62.8710 N.am  122  ILE122     -0.1963
    163  CA       -22.2320   52.4660   62.0180 C.3   122  ILE122      0.1727
    164  C        -21.5830   51.1320   61.6870 C.2   122  ILE122      0.2616
    165  O        -22.2740   50.1410   61.3980 O.2   122  ILE122     -0.2715
    166  CB       -22.6560   53.1580   60.7140 C.3   122  ILE122      0.0290
    167  CG1      -23.7430   52.3420   60.0270 C.3   122  ILE122      0.0022
    168  CG2      -21.4650   53.3990   59.7870 C.3   122  ILE122      0.0023
    169  CD1      -24.5640   53.1570   59.0240 C.3   122  ILE122      0.0001
    170  N        -20.2620   51.0870   61.7180 N.am  123  PHE123     -0.1974
    171  CA       -19.5810   49.8330   61.3900 C.3   123  PHE123      0.1639
    172  C        -19.6870   48.8280   62.5320 C.2   123  PHE123      0.2290
    173  O        -19.5210   47.6200   62.3080 O.2   123  PHE123     -0.2864
    174  CB       -18.1260   50.1060   60.9870 C.3   123  PHE123      0.0560
    175  CG       -18.0090   51.0760   59.8210 C.ar  123  PHE123     -0.0200
    176  CD1      -17.5790   52.3710   60.0160 C.ar  123  PHE123     -0.0042
    177  CD2      -18.3740   50.6880   58.5360 C.ar  123  PHE123     -0.0042
    178  CE1      -17.5140   53.2660   58.9470 C.ar  123  PHE123     -0.0003
    179  CE2      -18.2760   51.5810   57.4620 C.ar  123  PHE123     -0.0003
    180  CZ       -17.8730   52.8550   57.6680 C.ar  123  PHE123     -0.0000
    181  N        -28.7510   61.0470   53.8170 N.3   139  ARG139     -0.1231
    182  CA       -28.1100   62.2850   53.3730 C.3   139  ARG139      0.1694
    183  C        -27.0700   62.7080   54.3800 C.2   139  ARG139      0.2592
    184  O        -27.2340   62.4940   55.5750 O.2   139  ARG139     -0.2718
    185  CB       -29.1140   63.3980   53.0580 C.3   139  ARG139      0.0321
    186  CG       -29.4770   64.3280   54.1830 C.3   139  ARG139      0.0489
    187  CD       -28.3470   65.2330   54.6540 C.3   139  ARG139      0.2205
    188  NE       -27.9800   66.4000   53.8370 N.pl3 139  ARG139     -0.0865
    189  CZ       -27.3640   67.4510   54.3840 C.cat 139  ARG139      0.5346
    190  NH1      -26.9980   68.5000   53.6760 N.pl3 139  ARG139      0.1354
    191  NH2      -27.1080   67.4460   55.6920 N.pl3 139  ARG139      0.1354
    192  N        -25.9840   63.2830   53.9060 N.am  140  GLY140     -0.1957
    193  CA       -24.8720   63.6120   54.7630 C.3   140  GLY140      0.1869
    194  C        -24.2510   62.3530   55.3110 C.2   140  GLY140      0.2309
    195  O        -23.4800   62.3940   56.2530 O.2   140  GLY140     -0.2863
    196  N        -20.3610   61.2170   53.8050 N.3   144  ALA144     -0.1231
    197  CA       -19.5470   61.6550   54.9630 C.3   144  ALA144      0.1694
    198  C        -18.6170   60.5490   55.3350 C.2   144  ALA144      0.2591
    199  O        -17.6130   60.7600   56.0140 O.2   144  ALA144     -0.2718
    200  CB       -20.4310   62.0410   56.2060 C.3   144  ALA144      0.0304
    201  N        -18.9940   59.3540   54.9080 N.am  145  ILE145     -0.1980
    202  CA       -18.1920   58.1530   55.0260 C.3   145  ILE145      0.1595
    203  C        -16.8790   58.3340   54.2540 C.2   145  ILE145      0.2287
    204  O        -16.8740   58.8880   53.1410 O.2   145  ILE145     -0.2864
    205  CB       -19.0160   56.9850   54.4710 C.3   145  ILE145      0.0276
    206  CG1      -20.1710   56.6440   55.4540 C.3   145  ILE145      0.0022
    207  CG2      -18.1540   55.8000   54.1680 C.3   145  ILE145      0.0022
    208  CD1      -19.6860   56.0490   56.7430 C.3   145  ILE145      0.0001
@<TRIPOS>BOND
     1   185   182    1
     2   185   186    1
     3   204   203    2
     4    66    64   am
     5   182   181    1
     6   182   183    1
     7   190   189    1
     8   196   197    1
     9   188   189    2
    10   188   187    1
    11   192   183   am
    12   192   193    1
    13   207   205    1
    14   186   187    1
    15   203   202    1
    16    65    64    2
    17    64    63    1
    18   183   184    2
    19   189   191    1
    20   205   202    1
    21   205   206    1
    22   193   194    1
    23   201   202    1
    24   201   198   am
    25   197   198    1
    26   197   200    1
    27   194   195    2
    28   198   199    2
    29   206   208    1
    30    63    62    1
    31    83    84    1
    32    83    82    1
    33    62    59    1
    34   125   123   ar
    35    40    39    2
    36   122   123    1
    37   122   121    1
    38    84    78    1
    39   179   180   ar
    40   179   177   ar
    41   123   124   ar
    42    82    79    1
    43    38    41    1
    44    38    39    1
    45    38    37    1
    46   180   178   ar
    47    41    42    1
    48    59    58    1
    49    59    60    1
    50    39    48   am
    51    92    90    1
    52   121   118    1
    53   177   175   ar
    54    20    22   ar
    55    20    18   ar
    56    81    80    2
    57    58    50   am
    58    22    21   ar
    59    78    79    1
    60    78    69   am
    61    51    50    2
    62    76    77   ar
    63    76    74   ar
    64    77    75   ar
    65    60    61    2
    66    79    80    1
    67   178   176   ar
    68    50    49    1
    69   169   167    1
    70    48    49    1
    71    42    44   ar
    72    42    43   ar
    73    89    90    1
    74    89    86    1
    75    80    85   am
    76    74    72   ar
    77    75    73   ar
    78    90    91    1
    79    68    69    1
    80    68    67    1
    81    68    71    1
    82   118   117    1
    83   118   119    1
    84    49    52    1
    85    72    73   ar
    86    72    71    1
    87    69    70    2
    88    18    17   ar
    89    18    16   ar
    90   168   166    1
    91    44    46   ar
    92   175   176   ar
    93   175   174    1
    94    17    15   ar
    95    88    87    2
    96    21    19   ar
    97    43    45   ar
    98   120   119    2
    99   167   166    1
   100    85    86    1
   101    86    87    1
   102   116   113    1
   103    87    93   am
   104   166   163    1
   105   174   171    1
   106    16    19   ar
   107    16    14   ar
   108    46    47   ar
   109    52    53    1
   110    15    14   ar
   111    45    47   ar
   112   171   170    1
   113   171   172    1
   114   165   164    2
   115   113   114    1
   116   113   112    1
   117    93    94    1
   118    94    95    1
   119    94    97    1
   120   164   170   am
   121   164   163    1
   122    53    54   ar
   123    53    55   ar
   124    54    56   ar
   125    96    95    2
   126   114   115    2
   127    14    13    1
   128   163   162    1
   129    95    99   am
   130    55    57   ar
   131   173   172    2
   132   131   130    1
   133    56    57   ar
   134    97    98    1
   135   112   105   am
   136   162   158   am
   137    99   100    1
   138   129   128    2
   139   161   160    1
   140    13    10    1
   141   100   101    1
   142     1     2    1
   143     8     6    1
   144   105   106    2
   145   105   104    1
   146   126   127    1
   147   130   127    1
   148   130   132    1
   149   140   139   ar
   150    10     9    1
   151    10    11    1
   152   158   159    2
   153   158   157    1
   154   128   127    1
   155   128   133   am
   156   103   101   am
   157   103   104    1
   158   101   102    2
   159     6     7    1
   160     6     5    1
   161     2     5    1
   162     2     3    1
   163   160   157    1
   164   104   107    1
   165    34    32   ar
   166    34    36   ar
   167   157   156    1
   168   139   141   ar
   169   139   138    1
   170    31    32   ar
   171    31    29   ar
   172   108   107    1
   173   108   109    1
   174   133   134    1
   175    11    12    2
   176   134   137    1
   177   134   135    1
   178    32    30   ar
   179    36    35   ar
   180   110   109    1
   181   110   111    1
   182   148   146    1
   183     3     4    2
   184   137   138    1
   185    29    28   ar
   186   142   135   am
   187   142   143    1
   188   153   152    2
   189   146   143    1
   190   146   147    1
   191   156   152   am
   192   135   136    2
   193    30    28   ar
   194    30    33   ar
   195    35    33   ar
   196   152   151    1
   197    23    24    1
   198    28    27    1
   199   143   144    1
   200   147   149    1
   201   155   154    1
   202    24    27    1
   203    24    25    1
   204   144   145    2
   205   151   154    1
   206   151   150    1
   207    25    26    2
