@<TRIPOS>MOLECULE
tmp/3bglA01.pdb
 113 106 0 0 0
SMALL
GASTEIGER

@<TRIPOS>ATOM
      1  N         14.5460   26.9630    4.6530 N.3   119  GLU119     -0.1231
      2  CA        14.7220   26.8350    6.1020 C.3   119  GLU119      0.1699
      3  C         15.9570   27.6160    6.5330 C.2   119  GLU119      0.2593
      4  O         17.0880   27.2440    6.1910 O.2   119  GLU119     -0.2718
      5  CB        14.8650   25.3690    6.5160 C.3   119  GLU119      0.0402
      6  CG        15.3510   25.1800    7.9560 C.3   119  GLU119      0.1161
      7  CD        14.9430   23.8480    8.5600 C.2   119  GLU119      0.3649
      8  OE1       14.8450   22.8550    7.8110 O.co2 119  GLU119     -0.2457
      9  OE2       14.7240   23.7950    9.7910 O.co2 119  GLU119     -0.2457
     10  N         15.7290   28.6800    7.3020 N.am  120  GLY120     -0.1942
     11  CA        16.7830   29.5710    7.7350 C.3   120  GLY120      0.2014
     12  C         17.7950   28.8290    8.5790 C.2   120  GLY120      0.2639
     13  O         17.4170   28.0100    9.4220 O.2   120  GLY120     -0.2714
     14  N         19.0720   29.1020    8.3100 N.am  121  CYS121     -0.1953
     15  CA        20.2230   28.5670    9.0480 C.3   121  CYS121      0.1843
     16  C         20.6650   27.1710    8.6200 C.2   121  CYS121      0.2625
     17  O         21.7040   26.7070    9.0620 O.2   121  CYS121     -0.2714
     18  CB        19.9890   28.5800   10.5650 C.3   121  CYS121      0.0997
     19  SG        19.7380   30.2040   11.2930 S.3   121  CYS121     -0.0797
     20  N         19.8950   26.5000    7.7680 N.am  122  LEU122     -0.1977
     21  CA        20.2110   25.1250    7.3870 C.3   122  LEU122      0.1596
     22  C         21.5260   25.0280    6.6100 C.2   122  LEU122      0.2287
     23  O         22.3440   24.1500    6.8880 O.2   122  LEU122     -0.2864
     24  CB        19.0760   24.4990    6.5710 C.3   122  LEU122      0.0297
     25  CG        19.3630   23.1010    6.0130 C.3   122  LEU122      0.0022
     26  CD1       19.6680   22.1180    7.1340 C.3   122  LEU122      0.0001
     27  CD2       18.2000   22.6210    5.1780 C.3   122  LEU122      0.0001
     28  N         24.5300   26.0460    9.0160 N.3   125  SER125     -0.1217
     29  CA        24.8030   24.9580    9.9480 C.3   125  SER125      0.1889
     30  C         25.5430   23.8140    9.2610 C.2   125  SER125      0.2288
     31  O         26.4740   23.2450    9.8240 O.2   125  SER125     -0.2866
     32  CB        23.4970   24.4360   10.5610 C.3   125  SER125      0.2089
     33  OG        23.7240   23.2530   11.3070 O.3   125  SER125     -0.2183
     34  N         29.1430   24.7150    8.4500 N.3   128  ARG128     -0.1245
     35  CA        30.0230   24.7000    9.6140 C.3   128  ARG128      0.1563
     36  C         30.4910   23.2800    9.8960 C.2   128  ARG128      0.2260
     37  O         31.6430   23.0660   10.2810 O.2   128  ARG128     -0.2867
     38  CB        29.3040   25.2450   10.8460 C.3   128  ARG128      0.0307
     39  CG        30.1880   25.3300   12.0770 C.3   128  ARG128      0.0489
     40  CD        29.5330   25.9920   13.2740 C.3   128  ARG128      0.2205
     41  NE        28.4650   25.1550   13.8250 N.pl3 128  ARG128     -0.0865
     42  CZ        28.1900   25.0100   15.1200 C.cat 128  ARG128      0.5346
     43  NH1       28.8940   25.6510   16.0530 N.pl3 128  ARG128      0.1354
     44  NH2       27.1900   24.2100   15.4850 N.pl3 128  ARG128      0.1354
     45  N         19.4010   10.7180   22.1610 N.3   295  LYS295     -0.1245
     46  CA        18.4690   11.3050   21.2010 C.3   295  LYS295      0.1561
     47  C         18.3470   10.3820   19.9870 C.2   295  LYS295      0.2260
     48  O         17.2950    9.8070   19.7500 O.2   295  LYS295     -0.2867
     49  CB        18.9450   12.6950   20.7740 C.3   295  LYS295      0.0271
     50  CG        18.3000   13.2570   19.5040 C.3   295  LYS295      0.0035
     51  CD        19.0640   14.4770   19.0040 C.3   295  LYS295      0.0206
     52  CE        18.4930   14.9950   17.6990 C.3   295  LYS295      0.1093
     53  NZ        17.1670   15.6510   17.8660 N.3   295  LYS295     -0.1314
     54  N         19.5110   12.9320   13.4760 N.3   311  ALA311     -0.1231
     55  CA        18.9530   14.2130   13.8840 C.3   311  ALA311      0.1694
     56  C         18.1030   14.8580   12.7840 C.2   311  ALA311      0.2592
     57  O         16.9200   15.1260   12.9950 O.2   311  ALA311     -0.2718
     58  CB        20.0690   15.1550   14.3220 C.3   311  ALA311      0.0304
     59  N         18.6980   15.1070   11.6180 N.am  312  HIS312     -0.1976
     60  CA        17.9740   15.7570   10.5230 C.3   312  HIS312      0.1656
     61  C         18.5080   15.4450    9.1280 C.2   312  HIS312      0.2291
     62  O         18.5630   16.3200    8.2710 O.2   312  HIS312     -0.2864
     63  CB        17.9120   17.2740   10.7570 C.3   312  HIS312      0.0771
     64  CG        19.2220   17.9760   10.5880 C.ar  312  HIS312      0.0820
     65  ND1       19.3820   19.0430    9.7320 N.ar  312  HIS312     -0.2267
     66  CD2       20.4280   17.7800   11.1760 C.ar  312  HIS312      0.1154
     67  CE1       20.6320   19.4690    9.7910 C.ar  312  HIS312      0.1986
     68  NE2       21.2850   18.7250   10.6660 N.ar  312  HIS312     -0.2212
     69  N         16.5740   16.9960    6.1300 N.3   315  ASN315     -0.1240
     70  CA        16.8470   18.3840    5.7680 C.3   315  ASN315      0.1653
     71  C         17.9000   18.5140    4.6690 C.2   315  ASN315      0.2266
     72  O         17.7170   19.2810    3.7130 O.2   315  ASN315     -0.2867
     73  CB        17.3110   19.1760    6.9950 C.3   315  ASN315      0.1155
     74  CG        16.1630   19.7790    7.7830 C.2   315  ASN315      0.2627
     75  OD1       15.1020   20.0870    7.2320 O.2   315  ASN315     -0.2716
     76  ND2       16.3800   19.9720    9.0810 N.am  315  ASN315     -0.0877
     77  N         26.8960   19.2980   13.0170 N.3   412  SER412     -0.1202
     78  CA        26.6610   20.6910   13.3600 C.3   412  SER412      0.2020
     79  C         25.4110   20.8810   14.2160 C.2   412  SER412      0.2618
     80  O         25.4380   21.6370   15.1870 O.2   412  SER412     -0.2717
     81  CB        26.5600   21.5240   12.0790 C.3   412  SER412      0.2103
     82  OG        26.6070   22.9090   12.3580 O.3   412  SER412     -0.2182
     83  N         24.3180   20.2090   13.8630 N.am  413  LEU413     -0.1979
     84  CA        23.1020   20.2950   14.6620 C.3   413  LEU413      0.1596
     85  C         23.3300   19.6630   16.0310 C.2   413  LEU413      0.2287
     86  O         22.9240   20.2100   17.0470 O.2   413  LEU413     -0.2864
     87  CB        21.9110   19.6290   13.9640 C.3   413  LEU413      0.0297
     88  CG        20.5840   19.6740   14.7350 C.3   413  LEU413      0.0022
     89  CD1       20.2540   21.1010   15.1450 C.3   413  LEU413      0.0001
     90  CD2       19.4350   19.0790   13.9280 C.3   413  LEU413      0.0001
     91  N         25.2050   21.9510   18.3780 N.3   416  ALA416     -0.1231
     92  CA        24.3060   23.0020   18.8830 C.3   416  ALA416      0.1694
     93  C         23.4050   22.4870   20.0090 C.2   416  ALA416      0.2591
     94  O         23.1150   23.2070   20.9640 O.2   416  ALA416     -0.2718
     95  CB        23.4570   23.5780   17.7530 C.3   416  ALA416      0.0304
     96  N         22.9780   21.2350   19.8970 N.am  417  LEU417     -0.1980
     97  CA        22.1160   20.6290   20.8990 C.3   417  LEU417      0.1596
     98  C         22.8990   20.2210   22.1470 C.2   417  LEU417      0.2287
     99  O         22.3340   20.1380   23.2360 O.2   417  LEU417     -0.2864
    100  CB        21.3850   19.4230   20.3010 C.3   417  LEU417      0.0297
    101  CG        20.4530   19.7570   19.1330 C.3   417  LEU417      0.0022
    102  CD1       20.0570   18.4860   18.3790 C.3   417  LEU417      0.0001
    103  CD2       19.2190   20.5130   19.6090 C.3   417  LEU417      0.0001
    104  N         21.3430   25.3480   23.7230 N.3   421  HIS421     -0.1241
    105  CA        20.9510   26.5700   22.9990 C.3   421  HIS421      0.1621
    106  C         22.1650   27.2110   22.3150 C.2   421  HIS421      0.2264
    107  O         23.2910   27.2070   22.8160 O.2   421  HIS421     -0.2867
    108  CB        20.2250   27.5850   23.9040 C.3   421  HIS421      0.0745
    109  CG        19.0560   28.2630   23.2540 C.ar  421  HIS421      0.0817
    110  ND1       18.3880   29.3120   23.8470 N.ar  421  HIS421     -0.2268
    111  CD2       18.4260   28.0340   22.0760 C.ar  421  HIS421      0.1154
    112  CE1       17.4000   29.7040   23.0600 C.ar  421  HIS421      0.1986
    113  NE2       17.4000   28.9430   21.9800 N.ar  421  HIS421     -0.2212
@<TRIPOS>BOND
     1    72    71    2
     2     1     2    1
     3    71    70    1
     4    27    25    1
     5    70    69    1
     6    70    73    1
     7    25    24    1
     8    25    26    1
     9     2     5    1
    10     2     3    1
    11     4     3    2
    12     5     6    1
    13     3    10   am
    14    24    21    1
    15    22    23    2
    16    22    21    1
    17    73    74    1
    18    75    74    2
    19    10    11    1
    20    21    20    1
    21    11    12    1
    22    20    16   am
    23    74    76   am
    24     8     7   ar
    25     6     7    1
    26    62    61    2
    27    14    12   am
    28    14    15    1
    29    34    35    1
    30     7     9   ar
    31    12    13    2
    32    16    15    1
    33    16    17    2
    34    28    29    1
    35    15    18    1
    36    61    60    1
    37    30    31    2
    38    30    29    1
    39    35    36    1
    40    35    38    1
    41    65    67   ar
    42    65    64   ar
    43    67    68   ar
    44    36    37    2
    45    29    32    1
    46    60    63    1
    47    60    59    1
    48    32    33    1
    49    18    19    1
    50    64    63    1
    51    64    66   ar
    52    68    66   ar
    53    38    39    1
    54    59    56   am
    55    39    40    1
    56    81    82    1
    57    81    78    1
    58    56    57    2
    59    56    55    1
    60    77    78    1
    61    40    41    1
    62    78    79    1
    63    54    55    1
    64    41    42    2
    65    83    79   am
    66    83    84    1
    67    55    58    1
    68    90    88    1
    69    87    84    1
    70    87    88    1
    71    79    80    2
    72    84    85    1
    73    88    89    1
    74    42    44    1
    75    42    43    1
    76    85    86    2
    77    52    53    1
    78    52    51    1
    79    95    92    1
    80    91    92    1
    81   102   101    1
    82    92    93    1
    83    51    50    1
    84   101   103    1
    85   101   100    1
    86    50    49    1
    87    48    47    2
    88    96    93   am
    89    96    97    1
    90    47    46    1
    91    93    94    2
    92   100    97    1
    93    49    46    1
    94    97    98    1
    95    46    45    1
    96   113   111   ar
    97   113   112   ar
    98   111   109   ar
    99    98    99    2
   100   106   107    2
   101   106   105    1
   102   105   104    1
   103   105   108    1
   104   112   110   ar
   105   109   110   ar
   106   109   108    1
