@<TRIPOS>MOLECULE
tmp/3bglA00.pdb
 95 87 0 0 0
SMALL
GASTEIGER

@<TRIPOS>ATOM
      1  N         11.7090   -2.8780   -7.6830 N.3   150  ARG150     -0.1245
      2  CA        10.2750   -2.7790   -7.9160 C.3   150  ARG150      0.1563
      3  C          9.6250   -4.0780   -7.4530 C.2   150  ARG150      0.2260
      4  O         10.1080   -5.1680   -7.7530 O.2   150  ARG150     -0.2867
      5  CB         9.9750   -2.5120   -9.3910 C.3   150  ARG150      0.0307
      6  CG         8.4900   -2.3950   -9.7520 C.3   150  ARG150      0.0489
      7  CD         7.7170   -1.3100   -8.9970 C.3   150  ARG150      0.2205
      8  NE         7.9610    0.0400   -9.5030 N.pl3 150  ARG150     -0.0865
      9  CZ         7.5780    1.1610   -8.8830 C.cat 150  ARG150      0.5346
     10  NH1        6.9140    1.1100   -7.7300 N.pl3 150  ARG150      0.1354
     11  NH2        7.8530    2.3430   -9.4230 N.pl3 150  ARG150      0.1354
     12  N         13.8100    3.8780  -12.0970 N.3   217  MET217     -0.1230
     13  CA        12.4720    3.3730  -11.7840 C.3   217  MET217      0.1702
     14  C         11.6590    2.9750  -13.0100 C.2   217  MET217      0.2592
     15  O         11.0170    1.9320  -13.0040 O.2   217  MET217     -0.2718
     16  CB        11.6940    4.3700  -10.9330 C.3   217  MET217      0.0401
     17  CG        12.0130    4.2480   -9.4470 C.3   217  MET217      0.0596
     18  SD        10.5890    3.8880   -8.4500 S.3   217  MET217     -0.1393
     19  CE         9.7260    5.4860   -8.6240 C.3   217  MET217      0.0692
     20  N         11.6690    3.7880  -14.0560 N.am  218  ASN218     -0.1974
     21  CA        11.0070    3.3900  -15.2960 C.3   218  ASN218      0.1688
     22  C         11.6610    2.1440  -15.9080 C.2   218  ASN218      0.2292
     23  O         10.9710    1.2440  -16.3970 O.2   218  ASN218     -0.2864
     24  CB        10.9850    4.5470  -16.3000 C.3   218  ASN218      0.1181
     25  CG         9.8750    5.5600  -16.0050 C.2   218  ASN218      0.2629
     26  OD1        8.7970    5.2010  -15.5110 O.2   218  ASN218     -0.2716
     27  ND2       10.1360    6.8300  -16.3110 N.am  218  ASN218     -0.0877
     28  N         10.8320   -1.0100  -13.8960 N.3   221  SER221     -0.1217
     29  CA         9.4160   -1.3180  -14.1350 C.3   221  SER221      0.1889
     30  C          9.1840   -1.9970  -15.4850 C.2   221  SER221      0.2288
     31  O          8.2890   -2.8290  -15.6120 O.2   221  SER221     -0.2866
     32  CB         8.5560   -0.0490  -14.0580 C.3   221  SER221      0.2089
     33  OG         8.4380    0.4110  -12.7210 O.3   221  SER221     -0.2183
     34  N          7.8890   -5.8640  -16.1190 N.3   225  GLU225     -0.1245
     35  CA         6.7310   -6.2280  -16.9400 C.3   225  GLU225      0.1567
     36  C          7.0790   -7.3780  -17.8780 C.2   225  GLU225      0.2260
     37  O          6.2950   -8.3100  -18.0250 O.2   225  GLU225     -0.2867
     38  CB         6.1990   -5.0200  -17.7340 C.3   225  GLU225      0.0388
     39  CG         5.3290   -4.0810  -16.8980 C.3   225  GLU225      0.1160
     40  CD         5.0120   -2.7500  -17.5750 C.2   225  GLU225      0.3649
     41  OE1        3.8470   -2.2880  -17.4590 O.co2 225  GLU225     -0.2457
     42  OE2        5.9190   -2.1460  -18.2010 O.co2 225  GLU225     -0.2457
     43  N          1.7510   -3.8160  -10.7830 N.3   243  VAL243     -0.1231
     44  CA         3.1740   -3.8060  -11.1110 C.3   243  VAL243      0.1692
     45  C          3.9600   -3.3030   -9.9080 C.2   243  VAL243      0.2592
     46  O          5.1500   -3.5920   -9.7800 O.2   243  VAL243     -0.2718
     47  CB         3.4800   -2.9580  -12.3640 C.3   243  VAL243      0.0266
     48  CG1        4.9900   -2.9220  -12.6440 C.3   243  VAL243      0.0020
     49  CG2        2.7670   -3.5290  -13.5660 C.3   243  VAL243      0.0020
     50  N          3.2890   -2.5520   -9.0340 N.am  244  SER244     -0.1952
     51  CA         3.7970   -2.2680   -7.6930 C.3   244  SER244      0.1924
     52  C          2.7800   -2.7010   -6.6460 C.2   244  SER244      0.2314
     53  O          1.6860   -2.1430   -6.5730 O.2   244  SER244     -0.2863
     54  CB         4.0800   -0.7850   -7.5110 C.3   244  SER244      0.2116
     55  OG         4.3860   -0.5030   -6.1510 O.3   244  SER244     -0.2180
     56  N          3.6480   -2.4710   -3.4110 N.3   246  ASN246     -0.1240
     57  CA         4.2160   -1.8080   -2.2260 C.3   246  ASN246      0.1653
     58  C          5.3770   -2.5640   -1.5420 C.2   246  ASN246      0.2266
     59  O          5.7940   -2.2110   -0.4360 O.2   246  ASN246     -0.2867
     60  CB         3.1090   -1.4400   -1.2070 C.3   246  ASN246      0.1155
     61  CG         2.3850   -0.1430   -1.5580 C.2   246  ASN246      0.2627
     62  OD1        2.6710    0.4970   -2.5780 O.2   246  ASN246     -0.2716
     63  ND2        1.4430    0.2520   -0.7060 N.am  246  ASN246     -0.0877
     64  N          8.4000   -2.7000   -2.8590 N.3   248  CYS248     -0.1235
     65  CA         9.6220   -2.1880   -3.4970 C.3   248  CYS248      0.1677
     66  C         10.6780   -1.7160   -2.4740 C.2   248  CYS248      0.2270
     67  O         11.8030   -2.2120   -2.5140 O.2   248  CYS248     -0.2867
     68  CB         9.3200   -1.0970   -4.5490 C.3   248  CYS248      0.0956
     69  SG         7.6860   -1.2130   -5.3430 S.3   248  CYS248     -0.0801
     70  N          8.6260    1.9820   -2.7750 N.3   250  ASP250     -0.1225
     71  CA         8.8410    3.3330   -3.2580 C.3   250  ASP250      0.1805
     72  C          7.9960    4.3850   -2.5400 C.2   250  ASP250      0.2598
     73  O          6.7730    4.2830   -2.5100 O.2   250  ASP250     -0.2718
     74  CB         8.5380    3.3900   -4.7480 C.3   250  ASP250      0.1424
     75  CG         9.0090    4.6680   -5.3730 C.2   250  ASP250      0.3668
     76  OD1       10.0730    5.1730   -4.9530 O.co2 250  ASP250     -0.2456
     77  OD2        8.3640    5.2530   -6.2680 O.co2 250  ASP250     -0.2456
     78  N          8.6710    5.3910   -1.9820 N.am  251  LYS251     -0.1966
     79  CA         8.0500    6.6010   -1.4410 C.3   251  LYS251      0.1728
     80  C          7.0930    6.3770   -0.2660 C.2   251  LYS251      0.2616
     81  O          6.1690    7.1680   -0.0620 O.2   251  LYS251     -0.2715
     82  CB         7.3470    7.3870   -2.5580 C.3   251  LYS251      0.0311
     83  CG         8.2910    7.9200   -3.6220 C.3   251  LYS251      0.0038
     84  CD         7.5490    8.7410   -4.6660 C.3   251  LYS251      0.0206
     85  CE         8.4100    8.9890   -5.8930 C.3   251  LYS251      0.1093
     86  NZ         7.6240    9.5490   -7.0210 N.3   251  LYS251     -0.1314
     87  N          7.3040    5.2960    0.4820 N.am  252  LYS252     -0.1977
     88  CA         6.6270    5.0700    1.7610 C.3   252  LYS252      0.1596
     89  C          7.6350    4.5120    2.7560 C.2   252  LYS252      0.2287
     90  O          8.5830    3.8430    2.3560 O.2   252  LYS252     -0.2864
     91  CB         5.4780    4.0680    1.6220 C.3   252  LYS252      0.0298
     92  CG         4.2070    4.6230    0.9850 C.3   252  LYS252      0.0038
     93  CD         4.1970    4.4680   -0.5280 C.3   252  LYS252      0.0206
     94  CE         4.1500    3.0160   -0.9650 C.3   252  LYS252      0.1093
     95  NZ         3.9760    2.8910   -2.4300 N.3   252  LYS252     -0.1314
@<TRIPOS>BOND
     1    42    40   ar
     2    37    36    2
     3    36    35    1
     4    38    35    1
     5    38    39    1
     6    40    41   ar
     7    40    39    1
     8    35    34    1
     9    23    22    2
    10    27    25   am
    11    24    25    1
    12    24    21    1
    13    25    26    2
    14    22    21    1
    15    31    30    2
    16    30    29    1
    17    21    20    1
    18    29    32    1
    19    29    28    1
    20    32    33    1
    21    20    14   am
    22    49    47    1
    23    14    15    2
    24    14    13    1
    25    48    47    1
    26    47    44    1
    27    12    13    1
    28    13    16    1
    29    44    43    1
    30    44    45    1
    31    16    17    1
    32    45    46    2
    33    45    50   am
    34     6     5    1
    35     6     7    1
    36     8     7    1
    37     8     9    2
    38    17    18    1
    39    11     9    1
    40     5     2    1
    41    50    51    1
    42     9    10    1
    43    19    18    1
    44     2     1    1
    45     2     3    1
    46     4     3    2
    47    51    54    1
    48    51    52    1
    49    54    55    1
    50    86    85    1
    51    52    53    2
    52    77    75   ar
    53    85    84    1
    54    75    76   ar
    55    75    74    1
    56    69    68    1
    57    74    71    1
    58    84    83    1
    59    68    65    1
    60    83    82    1
    61    65    64    1
    62    65    66    1
    63    56    57    1
    64    71    70    1
    65    71    72    1
    66    62    61    2
    67    82    79    1
    68    72    73    2
    69    72    78   am
    70    67    66    2
    71    95    94    1
    72    57    58    1
    73    57    60    1
    74    78    79    1
    75    61    60    1
    76    61    63   am
    77    58    59    2
    78    79    80    1
    79    94    93    1
    80    93    92    1
    81    80    81    2
    82    80    87   am
    83    87    88    1
    84    92    91    1
    85    91    88    1
    86    88    89    1
    87    90    89    2
