@<TRIPOS>MOLECULE
tmp/3bgpA00.pdb
 169 157 0 0 0
SMALL
GASTEIGER

@<TRIPOS>ATOM
      1  N         16.1400   38.3460   -5.2410 N.3    12  LEU12      -0.1231
      2  CA        17.5520   38.0940   -5.5080 C.3    12  LEU12       0.1693
      3  C         17.7540   36.7440   -6.1830 C.2    12  LEU12       0.2592
      4  O         17.9470   36.6690   -7.3950 O.2    12  LEU12      -0.2718
      5  CB        18.3540   38.1320   -4.2050 C.3    12  LEU12       0.0284
      6  CG        18.3960   39.4610   -3.4480 C.3    12  LEU12       0.0019
      7  CD1       19.2040   39.2920   -2.1710 C.3    12  LEU12       0.0001
      8  CD2       19.0070   40.5370   -4.3300 C.3    12  LEU12       0.0001
      9  N         17.7070   35.6780   -5.3900 N.am   13  GLY13      -0.1957
     10  CA        17.9350   34.3480   -5.9250 C.3    13  GLY13       0.1869
     11  C         16.7280   33.4390   -5.8030 C.2    13  GLY13       0.2309
     12  O         15.7470   33.7770   -5.1400 O.2    13  GLY13      -0.2863
     13  N         16.8330   26.1840   -3.2190 N.3    17  PHE17      -0.1241
     14  CA        17.2640   26.4570   -1.8520 C.3    17  PHE17       0.1605
     15  C         16.2010   27.2940   -1.1450 C.2    17  PHE17       0.2264
     16  O         16.2440   27.4820    0.0710 O.2    17  PHE17      -0.2867
     17  CB        18.5960   27.2180   -1.8670 C.3    17  PHE17       0.0534
     18  CG        18.6150   28.3880   -2.8160 C.ar   17  PHE17      -0.0203
     19  CD1       19.4020   28.3620   -3.9580 C.ar   17  PHE17      -0.0042
     20  CD2       17.8260   29.5020   -2.5810 C.ar   17  PHE17      -0.0042
     21  CE1       19.3980   29.4260   -4.8480 C.ar   17  PHE17      -0.0003
     22  CE2       17.8180   30.5670   -3.4650 C.ar   17  PHE17      -0.0003
     23  CZ        18.6040   30.5280   -4.6000 C.ar   17  PHE17      -0.0000
     24  N         15.0140   34.0490   -2.2130 N.3    20  VAL20      -0.1245
     25  CA        15.6930   35.1110   -1.4820 C.3    20  VAL20       0.1561
     26  C         15.3250   36.4850   -2.0230 C.2    20  VAL20       0.2260
     27  O         15.4950   36.7610   -3.2100 O.2    20  VAL20      -0.2867
     28  CB        17.2240   34.9520   -1.5560 C.3    20  VAL20       0.0252
     29  CG1       17.8990   36.1050   -0.8340 C.3    20  VAL20       0.0019
     30  CG2       17.6380   33.6250   -0.9410 C.3    20  VAL20       0.0019
     31  N         19.1380   40.2130    3.6040 N.3    33  ALA33      -0.1245
     32  CA        18.4730   39.3470    2.6440 C.3    33  ALA33       0.1562
     33  C         17.4180   38.5250    3.3600 C.2    33  ALA33       0.2260
     34  O         17.6830   37.9420    4.4110 O.2    33  ALA33      -0.2867
     35  CB        19.4730   38.4330    1.9850 C.3    33  ALA33       0.0290
     36  N         15.1690   35.3280    3.2420 N.3    35  LYS35      -0.1245
     37  CA        15.0560   34.0260    2.5990 C.3    35  LYS35       0.1561
     38  C         13.8210   33.2850    3.0930 C.2    35  LYS35       0.2260
     39  O         13.5850   33.1840    4.2960 O.2    35  LYS35      -0.2867
     40  CB        16.3040   33.1880    2.8830 C.3    35  LYS35       0.0271
     41  CG        16.2670   31.7960    2.2760 C.3    35  LYS35       0.0035
     42  CD        17.5720   31.0570    2.5160 C.3    35  LYS35       0.0206
     43  CE        17.5830   29.7190    1.7980 C.3    35  LYS35       0.1093
     44  NZ        18.9120   29.0530    1.8870 N.3    35  LYS35      -0.1314
     45  N         18.8330   24.2420    8.6160 N.3    57  GLU57      -0.1245
     46  CA        19.5710   25.3970    8.1310 C.3    57  GLU57       0.1567
     47  C         19.7020   26.4430    9.2340 C.2    57  GLU57       0.2260
     48  O         20.7290   27.1130    9.3470 O.2    57  GLU57      -0.2867
     49  CB        18.8530   25.9970    6.9190 C.3    57  GLU57       0.0388
     50  CG        19.6190   27.1010    6.2120 C.3    57  GLU57       0.1160
     51  CD        18.9440   27.5400    4.9260 C.2    57  GLU57       0.3649
     52  OE1       18.1480   26.7520    4.3700 O.co2  57  GLU57      -0.2457
     53  OE2       19.2100   28.6720    4.4710 O.co2  57  GLU57      -0.2457
     54  N         23.2430   27.6510   10.9730 N.3    61  LEU61      -0.1245
     55  CA        23.5680   29.0700   10.9250 C.3    61  LEU61       0.1561
     56  C         23.7730   29.6460   12.3210 C.2    61  LEU61       0.2260
     57  O         24.6710   30.4590   12.5400 O.2    61  LEU61      -0.2867
     58  CB        22.4600   29.8420   10.2060 C.3    61  LEU61       0.0270
     59  CG        22.3850   29.6580    8.6880 C.3    61  LEU61       0.0019
     60  CD1       21.1470   30.3470    8.1430 C.3    61  LEU61       0.0001
     61  CD2       23.6410   30.2250    8.0460 C.3    61  LEU61       0.0001
     62  N         28.2390   33.5380    6.2190 N.3    72  ILE72      -0.1245
     63  CA        27.1030   34.4510    6.2140 C.3    72  ILE72       0.1561
     64  C         26.4920   34.5280    7.6100 C.2    72  ILE72       0.2260
     65  O         26.5290   33.5600    8.3680 O.2    72  ILE72      -0.2867
     66  CB        26.0150   33.9900    5.2240 C.3    72  ILE72       0.0252
     67  CG1       25.0170   35.1220    4.9900 C.3    72  ILE72       0.0019
     68  CG2       25.2990   32.7610    5.7640 C.3    72  ILE72       0.0019
     69  CD1       25.6220   36.3180    4.2890 C.3    72  ILE72       0.0001
     70  N         19.0520   37.3800    6.8190 N.3    88  LEU88      -0.1231
     71  CA        20.4950   37.2210    6.7060 C.3    88  LEU88       0.1693
     72  C         21.1380   38.5480    6.3360 C.2    88  LEU88       0.2592
     73  O         20.5460   39.3510    5.6160 O.2    88  LEU88      -0.2718
     74  CB        20.8140   36.1760    5.6390 C.3    88  LEU88       0.0284
     75  CG        20.1750   34.8120    5.8950 C.3    88  LEU88       0.0019
     76  CD1       20.0480   34.0470    4.5970 C.3    88  LEU88       0.0001
     77  CD2       21.0070   34.0440    6.9060 C.3    88  LEU88       0.0001
     78  N         22.3490   38.7800    6.8300 N.am   89  GLU89      -0.1966
     79  CA        23.0760   39.9940    6.4860 C.3    89  GLU89       0.1733
     80  C         23.3440   39.9950    4.9860 C.2    89  GLU89       0.2616
     81  O         23.5640   38.9430    4.3890 O.2    89  GLU89      -0.2715
     82  CB        24.4000   40.0580    7.2500 C.3    89  GLU89       0.0429
     83  CG        25.4310   39.0330    6.8060 C.3    89  GLU89       0.1163
     84  CD        26.7800   39.2280    7.4780 C.2    89  GLU89       0.3649
     85  OE1       27.7160   38.4630    7.1650 O.co2  89  GLU89      -0.2457
     86  OE2       26.9050   40.1410    8.3230 O.co2  89  GLU89      -0.2457
     87  N         23.3130   41.1760    4.3780 N.am   90  ARG90      -0.1964
     88  CA        23.5450   41.2930    2.9440 C.3    90  ARG90       0.1714
     89  C         24.6770   42.2620    2.6300 C.2    90  ARG90       0.2458
     90  O         24.5900   43.4550    2.9200 O.2    90  ARG90      -0.2730
     91  CB        22.2680   41.7550    2.2390 C.3    90  ARG90       0.0347
     92  CG        22.4370   41.9800    0.7440 C.3    90  ARG90       0.0492
     93  CD        21.0980   42.2180    0.0630 C.3    90  ARG90       0.2205
     94  NE        20.4250   43.4090    0.5710 N.pl3  90  ARG90      -0.0865
     95  CZ        20.5860   44.6290    0.0680 C.cat  90  ARG90       0.5346
     96  NH1       21.4030   44.8230   -0.9580 N.pl3  90  ARG90       0.1354
     97  NH2       19.9290   45.6560    0.5900 N.pl3  90  ARG90       0.1354
     98  N         25.7630   41.7520    2.0320 N.am   91  PRO91      -0.2727
     99  CA        26.8610   42.5910    1.5430 C.3    91  PRO91       0.1402
    100  C         26.3950   43.5190    0.4250 C.2    91  PRO91       0.2269
    101  O         25.4030   43.2420   -0.2510 O.2    91  PRO91      -0.2865
    102  CB        27.8960   41.5800    1.0490 C.3    91  PRO91       0.0296
    103  CG        27.5780   40.3250    1.7920 C.3    91  PRO91       0.0237
    104  CD        26.0850   40.3190    1.9310 C.3    91  PRO91       0.0939
    105  N         27.9000   43.3910   -3.7100 N.3    94  VAL94      -0.1231
    106  CA        28.1910   41.9710   -3.5550 C.3    94  VAL94       0.1692
    107  C         27.8870   41.1860   -4.8260 C.2    94  VAL94       0.2592
    108  O         26.9380   41.4920   -5.5480 O.2    94  VAL94      -0.2718
    109  CB        27.3780   41.3600   -2.3920 C.3    94  VAL94       0.0266
    110  CG1       25.8920   41.4480   -2.6950 C.3    94  VAL94       0.0020
    111  CG2       27.7970   39.9160   -2.1670 C.3    94  VAL94       0.0020
    112  N         28.7020   40.1720   -5.0920 N.am   95  GLN95      -0.1966
    113  CA        28.5020   39.2960   -6.2400 C.3    95  GLN95       0.1733
    114  C         29.0060   37.8970   -5.9020 C.2    95  GLN95       0.2616
    115  O         30.0400   37.7480   -5.2500 O.2    95  GLN95      -0.2715
    116  CB        29.2600   39.8380   -7.4510 C.3    95  GLN95       0.0408
    117  CG        29.1490   38.9730   -8.6920 C.3    95  GLN95       0.0908
    118  CD        29.8640   39.5760   -9.8860 C.2    95  GLN95       0.2608
    119  OE1       29.3170   39.6320  -10.9860 O.2    95  GLN95      -0.2717
    120  NE2       31.0930   40.0300   -9.6730 N.am   95  GLN95      -0.0878
    121  N         28.2790   36.8740   -6.3410 N.am   96  ASP96      -0.1971
    122  CA        28.6760   35.5010   -6.0500 C.3    96  ASP96       0.1709
    123  C         29.7920   35.0490   -6.9850 C.2    96  ASP96       0.2293
    124  O         29.9380   35.5720   -8.0900 O.2    96  ASP96      -0.2864
    125  CB        27.4720   34.5540   -6.1590 C.3    96  ASP96       0.1436
    126  CG        26.9040   34.4760   -7.5640 C.2    96  ASP96       0.3671
    127  OD1       27.6900   34.3870   -8.5300 O.co2  96  ASP96      -0.2456
    128  OD2       25.6630   34.4960   -7.7000 O.co2  96  ASP96      -0.2456
    129  N         28.9880   34.3350  -10.8560 N.3    99  ASP99      -0.1239
    130  CA        28.8650   35.4820  -11.7460 C.3    99  ASP99       0.1674
    131  C         30.2220   36.1380  -11.9610 C.2    99  ASP99       0.2266
    132  O         30.5730   36.5130  -13.0790 O.2    99  ASP99      -0.2867
    133  CB        27.8880   36.5020  -11.1630 C.3    99  ASP99       0.1410
    134  CG        26.4690   35.9800  -11.1120 C.2    99  ASP99       0.3668
    135  OD1       26.1310   35.1090  -11.9400 O.co2  99  ASP99      -0.2456
    136  OD2       25.6930   36.4390  -10.2460 O.co2  99  ASP99      -0.2456
    137  N         28.6020   29.0460   -6.5830 N.3   139  GLU139     -0.1245
    138  CA        27.3230   29.7230   -6.4110 C.3   139  GLU139      0.1567
    139  C         27.0600   30.0870   -4.9540 C.2   139  GLU139      0.2260
    140  O         26.3920   31.0790   -4.6670 O.2   139  GLU139     -0.2867
    141  CB        26.1830   28.8420   -6.9220 C.3   139  GLU139      0.0388
    142  CG        26.1850   28.6180   -8.4210 C.3   139  GLU139      0.1160
    143  CD        24.9110   27.9550   -8.9030 C.2   139  GLU139      0.3649
    144  OE1       24.9070   26.7170   -9.0730 O.co2 139  GLU139     -0.2457
    145  OE2       23.9100   28.6750   -9.1090 O.co2 139  GLU139     -0.2457
    146  N         29.8430   34.2640   -1.6740 N.3   142  LEU142     -0.1245
    147  CA        29.6120   35.6720   -1.9690 C.3   142  LEU142      0.1561
    148  C         30.9120   36.4580   -1.9060 C.2   142  LEU142      0.2260
    149  O         31.8200   36.1090   -1.1520 O.2   142  LEU142     -0.2867
    150  CB        28.6120   36.2620   -0.9730 C.3   142  LEU142      0.0270
    151  CG        27.1410   36.2670   -1.3900 C.3   142  LEU142      0.0019
    152  CD1       26.7670   34.9370   -2.0210 C.3   142  LEU142      0.0001
    153  CD2       26.2830   36.5540   -0.1720 C.3   142  LEU142      0.0001
    154  N         27.6930   30.9920    1.9930 N.3   153  ILE153     -0.1231
    155  CA        26.2500   31.0880    2.1980 C.3   153  ILE153      0.1692
    156  C         25.4930   29.8180    1.8190 C.2   153  ILE153      0.2592
    157  O         25.9740   29.0050    1.0290 O.2   153  ILE153     -0.2718
    158  CB        25.6520   32.2810    1.4060 C.3   153  ILE153      0.0266
    159  CG1       25.9520   32.1340   -0.0870 C.3   153  ILE153      0.0019
    160  CG2       26.2250   33.5900    1.9230 C.3   153  ILE153      0.0020
    161  CD1       24.9570   31.2790   -0.8390 C.3   153  ILE153      0.0001
    162  N         24.3070   29.6620    2.4020 N.am  154  ASP154     -0.1974
    163  CA        23.3780   28.5850    2.0660 C.3   154  ASP154      0.1709
    164  C         23.7640   27.2450    2.6770 C.2   154  ASP154      0.2293
    165  O         24.5140   26.4700    2.0830 O.2   154  ASP154     -0.2864
    166  CB        23.2500   28.4390    0.5480 C.3   154  ASP154      0.1436
    167  CG        22.0770   27.5670    0.1470 C.2   154  ASP154      0.3671
    168  OD1       21.2610   27.2290    1.0310 O.co2 154  ASP154     -0.2456
    169  OD2       21.9700   27.2190   -1.0480 O.co2 154  ASP154     -0.2456
@<TRIPOS>BOND
     1   132   131    2
     2   131   130    1
     3   135   134   ar
     4   130   133    1
     5   130   129    1
     6   133   134    1
     7   134   136   ar
     8   119   118    2
     9   118   120   am
    10   118   117    1
    11   145   143   ar
    12   144   143   ar
    13   143   142    1
    14   117   116    1
    15   127   126   ar
    16   142   141    1
    17   124   123    2
    18   128   126   ar
    19   126   125    1
    20   116   113    1
    21     4     3    2
    22   123   122    1
    23   141   138    1
    24   137   138    1
    25   138   139    1
    26   121   122    1
    27   121   114   am
    28   113   114    1
    29   113   112    1
    30     3     2    1
    31     3     9   am
    32   125   122    1
    33    10    11    1
    34    10     9    1
    35   114   115    2
    36    11    12    2
    37   108   107    2
    38     2     1    1
    39     2     5    1
    40   112   107   am
    41   139   140    2
    42    21    23   ar
    43    21    19   ar
    44   107   106    1
    45    23    22   ar
    46     8     6    1
    47     5     6    1
    48    19    18   ar
    49   105   106    1
    50   106   109    1
    51    22    20   ar
    52     6     7    1
    53    13    14    1
    54    27    26    2
    55    18    20   ar
    56    18    17    1
    57   110   109    1
    58   109   111    1
    59    24    25    1
    60    26    25    1
    61   152   151    1
    62   147   148    1
    63   147   146    1
    64   147   150    1
    65   148   149    2
    66    17    14    1
    67    14    15    1
    68    28    25    1
    69    28    30    1
    70    28    29    1
    71   151   150    1
    72   151   153    1
    73    15    16    2
    74   169   167   ar
    75    96    95    1
    76   161   159    1
    77   101   100    2
    78   159   158    1
    79    93    94    1
    80    93    92    1
    81    95    94    2
    82    95    97    1
    83   167   166    1
    84   167   168   ar
    85   100    99    1
    86   166   163    1
    87    92    91    1
    88   157   156    2
    89   102    99    1
    90   102   103    1
    91   158   160    1
    92   158   155    1
    93    99    98    1
    94   103   104    1
    95    43    44    1
    96    43    42    1
    97   156   155    1
    98   156   162   am
    99   104    98    1
   100    35    32    1
   101   154   155    1
   102    98    89   am
   103   163   162    1
   104   163   164    1
   105   165   164    2
   106    91    88    1
   107    41    42    1
   108    41    40    1
   109    37    40    1
   110    37    38    1
   111    37    36    1
   112    89    90    2
   113    89    88    1
   114    32    33    1
   115    32    31    1
   116    88    87    1
   117    38    39    2
   118    33    34    2
   119    69    67    1
   120    52    51   ar
   121    87    80   am
   122    81    80    2
   123    53    51   ar
   124    76    75    1
   125    51    50    1
   126    80    79    1
   127    67    66    1
   128    66    68    1
   129    66    63    1
   130    73    72    2
   131    74    75    1
   132    74    71    1
   133    75    77    1
   134    50    49    1
   135    63    62    1
   136    63    64    1
   137    72    71    1
   138    72    78   am
   139    79    78    1
   140    79    82    1
   141    71    70    1
   142    83    82    1
   143    83    84    1
   144    49    46    1
   145    85    84   ar
   146    84    86   ar
   147    64    65    2
   148    61    59    1
   149    46    45    1
   150    46    47    1
   151    60    59    1
   152    59    58    1
   153    47    48    2
   154    58    55    1
   155    55    54    1
   156    55    56    1
   157    56    57    2
