@<TRIPOS>MOLECULE
tmp/3bgqA00.pdb
 160 148 0 0 0
SMALL
GASTEIGER

@<TRIPOS>ATOM
      1  N        -25.1580   33.9450   -5.2750 N.3    12  LEU12      -0.1231
      2  CA       -24.3380   35.0670   -5.7220 C.3    12  LEU12       0.1693
      3  C        -23.1080   34.5850   -6.4780 C.2    12  LEU12       0.2592
      4  O        -22.6060   35.2680   -7.3700 O.2    12  LEU12      -0.2718
      5  CB       -23.9050   35.9190   -4.5270 C.3    12  LEU12       0.0284
      6  CG       -25.0240   36.6280   -3.7620 C.3    12  LEU12       0.0019
      7  CD1      -24.4420   37.4240   -2.6060 C.3    12  LEU12       0.0001
      8  CD2      -25.7750   37.5480   -4.7060 C.3    12  LEU12       0.0001
      9  N        -22.6200   33.4020   -6.1210 N.am   13  GLY13      -0.1957
     10  CA       -21.4530   32.8600   -6.7900 C.3    13  GLY13       0.1869
     11  C        -20.9490   31.6070   -6.1100 C.2    13  GLY13       0.2309
     12  O        -21.3600   31.2900   -4.9900 O.2    13  GLY13      -0.2863
     13  N        -13.9450   28.6480   -3.0450 N.3    17  PHE17      -0.1241
     14  CA       -14.3740   29.0620   -1.7130 C.3    17  PHE17       0.1605
     15  C        -15.6830   28.3970   -1.2790 C.2    17  PHE17       0.2264
     16  O        -16.0510   28.4610   -0.1020 O.2    17  PHE17      -0.2867
     17  CB       -14.5730   30.5780   -1.6900 C.3    17  PHE17       0.0534
     18  CG       -15.4110   31.0850   -2.8330 C.ar   17  PHE17      -0.0203
     19  CD1      -14.8180   31.4840   -4.0230 C.ar   17  PHE17      -0.0042
     20  CD2      -16.7940   31.1210   -2.7340 C.ar   17  PHE17      -0.0042
     21  CE1      -15.5890   31.9080   -5.1000 C.ar   17  PHE17      -0.0003
     22  CE2      -17.5740   31.5440   -3.8060 C.ar   17  PHE17      -0.0003
     23  CZ       -16.9690   31.9380   -4.9900 C.ar   17  PHE17      -0.0000
     24  N        -21.8680   30.8460   -2.2630 N.3    20  VAL20      -0.1245
     25  CA       -22.3500   31.9880   -1.4930 C.3    20  VAL20       0.1561
     26  C        -23.7140   32.4910   -1.9490 C.2    20  VAL20       0.2260
     27  O        -23.9050   32.8070   -3.1250 O.2    20  VAL20      -0.2867
     28  CB       -21.3430   33.1550   -1.5770 C.3    20  VAL20       0.0252
     29  CG1      -21.8330   34.3280   -0.7560 C.3    20  VAL20       0.0019
     30  CG2      -19.9750   32.6880   -1.0920 C.3    20  VAL20       0.0019
     31  N        -25.0750   37.3940    3.9480 N.3    33  ALA33      -0.1245
     32  CA       -24.5650   36.5040    2.9200 C.3    33  ALA33       0.1562
     33  C        -24.4360   35.1460    3.6020 C.2    33  ALA33       0.2260
     34  O        -24.0260   35.0510    4.7570 O.2    33  ALA33      -0.2867
     35  CB       -23.2030   36.9910    2.4100 C.3    33  ALA33       0.0290
     36  N        -22.6320   31.6130    3.2400 N.3    35  LYS35      -0.1245
     37  CA       -21.5550   30.8800    2.5850 C.3    35  LYS35       0.1561
     38  C        -21.4600   29.4330    3.0660 C.2    35  LYS35       0.2260
     39  O        -21.2640   29.1640    4.2560 O.2    35  LYS35      -0.2867
     40  CB       -20.2280   31.6040    2.8420 C.3    35  LYS35       0.0271
     41  CG       -19.0100   30.8950    2.2440 C.3    35  LYS35       0.0035
     42  CD       -17.7750   31.7450    2.5850 C.3    35  LYS35       0.0206
     43  CE       -16.4120   31.2090    2.1630 C.3    35  LYS35       0.1093
     44  NZ       -15.3190   32.2270    2.3010 N.3    35  LYS35      -0.1314
     45  N        -11.3480   30.1890    8.4600 N.3    57  GLU57      -0.1245
     46  CA       -12.0280   31.4720    8.3150 C.3    57  GLU57       0.1567
     47  C        -12.8170   31.8580    9.5620 C.2    57  GLU57       0.2260
     48  O        -12.8770   33.0340    9.9220 O.2    57  GLU57      -0.2867
     49  CB       -12.9470   31.4610    7.0830 C.3    57  GLU57       0.0388
     50  CG       -13.7200   32.7780    6.9140 C.3    57  GLU57       0.1160
     51  CD       -14.1960   32.9740    5.4760 C.2    57  GLU57       0.3649
     52  OE1      -14.6860   31.9910    4.8730 O.co2  57  GLU57      -0.2457
     53  OE2      -14.0830   34.1090    4.9570 O.co2  57  GLU57      -0.2457
     54  N        -14.7620   42.1910    6.7230 N.3    72  ILE72      -0.1245
     55  CA       -16.1130   41.6390    6.7310 C.3    72  ILE72       0.1561
     56  C        -16.4010   41.0600    8.1220 C.2    72  ILE72       0.2260
     57  O        -15.5250   40.4930    8.7780 O.2    72  ILE72      -0.2867
     58  CB       -16.2510   40.5410    5.6400 C.3    72  ILE72       0.0252
     59  CG1      -17.7270   40.3060    5.3100 C.3    72  ILE72       0.0019
     60  CG2      -15.5950   39.2460    6.1080 C.3    72  ILE72       0.0019
     61  CD1      -18.3800   41.4840    4.6030 C.3    72  ILE72       0.0001
     62  N        -22.4440   35.8830    6.9810 N.3    88  LEU88      -0.1231
     63  CA       -21.6110   37.0820    6.9450 C.3    88  LEU88       0.1693
     64  C        -22.3890   38.3580    6.6370 C.2    88  LEU88       0.2592
     65  O        -23.4790   38.3390    6.0550 O.2    88  LEU88      -0.2718
     66  CB       -20.5060   36.9300    5.8860 C.3    88  LEU88       0.0284
     67  CG       -19.3990   35.8660    5.9370 C.3    88  LEU88       0.0019
     68  CD1      -18.4240   36.1620    7.0660 C.3    88  LEU88       0.0001
     69  CD2      -20.0060   34.4990    6.0890 C.3    88  LEU88       0.0001
     70  N        -21.7900   39.4810    7.0280 N.am   89  GLU89      -0.1966
     71  CA       -22.3520   40.8000    6.7890 C.3    89  GLU89       0.1733
     72  C        -22.4550   40.9960    5.2800 C.2    89  GLU89       0.2616
     73  O        -21.6280   40.4770    4.5230 O.2    89  GLU89      -0.2715
     74  CB       -21.4340   41.8670    7.4120 C.3    89  GLU89       0.0429
     75  CG       -21.1150   43.0300    6.4780 C.3    89  GLU89       0.1163
     76  CD       -20.1410   44.0440    7.0730 C.2    89  GLU89       0.3649
     77  OE1      -19.0980   43.6280    7.6330 O.co2  89  GLU89      -0.2457
     78  OE2      -20.4110   45.2610    6.9710 O.co2  89  GLU89      -0.2457
     79  N        -23.4750   41.7220    4.8370 N.am   90  ARG90      -0.1964
     80  CA       -23.6560   41.9700    3.4110 C.3    90  ARG90       0.1714
     81  C        -24.0630   43.4010    3.1000 C.2    90  ARG90       0.2458
     82  O        -25.2250   43.7740    3.2390 O.2    90  ARG90      -0.2730
     83  CB       -24.7100   41.0310    2.8160 C.3    90  ARG90       0.0347
     84  CG       -25.0530   41.4120    1.3680 C.3    90  ARG90       0.0492
     85  CD       -25.8360   40.4200    0.5130 C.3    90  ARG90       0.2205
     86  NE       -27.1960   40.1840    0.9970 N.pl3  90  ARG90      -0.0865
     87  CZ       -28.2500   40.9300    0.6790 C.cat  90  ARG90       0.5346
     88  NH1      -28.1200   41.9770   -0.1320 N.pl3  90  ARG90       0.1354
     89  NH2      -29.4430   40.6230    1.1680 N.pl3  90  ARG90       0.1354
     90  N        -23.1030   44.2300    2.6750 N.am   91  PRO91      -0.2727
     91  CA       -23.4910   45.6070    2.3630 C.3    91  PRO91       0.1402
     92  C        -24.3820   45.6210    1.1190 C.2    91  PRO91       0.2269
     93  O        -24.3380   44.7070    0.2900 O.2    91  PRO91      -0.2865
     94  CB       -22.1470   46.3080    2.1510 C.3    91  PRO91       0.0296
     95  CG       -21.2430   45.1970    1.6860 C.3    91  PRO91       0.0237
     96  CD       -21.6440   44.0440    2.5700 C.3    91  PRO91       0.0939
     97  N        -23.6310   46.7460   -3.1760 N.3    94  VAL94      -0.1245
     98  CA       -22.2270   46.3640   -3.1000 C.3    94  VAL94       0.1561
     99  C        -21.7310   45.8420   -4.4470 C.2    94  VAL94       0.2260
    100  O        -22.5120   45.4170   -5.3030 O.2    94  VAL94      -0.2867
    101  CB       -22.0100   45.2550   -2.0370 C.3    94  VAL94       0.0252
    102  CG1      -22.6780   43.9760   -2.4880 C.3    94  VAL94       0.0019
    103  CG2      -20.5260   45.0170   -1.8100 C.3    94  VAL94       0.0019
    104  N        -17.8760   43.8730   -5.9190 N.3    96  ASP96      -0.1239
    105  CA       -16.4990   43.4880   -5.6400 C.3    96  ASP96       0.1674
    106  C        -15.5820   44.3140   -6.5380 C.2    96  ASP96       0.2266
    107  O        -15.9950   44.7940   -7.6010 O.2    96  ASP96      -0.2867
    108  CB       -16.2760   41.9890   -5.8730 C.3    96  ASP96       0.1410
    109  CG       -16.4960   41.4700   -7.2760 C.2    96  ASP96       0.3668
    110  OD1      -17.6160   41.0140   -7.5650 O.co2  96  ASP96      -0.2456
    111  OD2      -15.5540   41.5240   -8.0940 O.co2  96  ASP96      -0.2456
    112  N        -15.1460   43.2060  -10.3980 N.3    99  ASP99      -0.1239
    113  CA       -16.2010   43.6540  -11.3080 C.3    99  ASP99       0.1674
    114  C        -16.1440   45.1610  -11.5360 C.2    99  ASP99       0.2266
    115  O        -16.3660   45.6450  -12.6480 O.2    99  ASP99      -0.2867
    116  CB       -17.5870   43.2820  -10.7700 C.3    99  ASP99       0.1410
    117  CG       -17.7850   41.7890  -10.8710 C.2    99  ASP99       0.3668
    118  OD1      -17.1220   41.1590  -11.7260 O.co2  99  ASP99      -0.2456
    119  OD2      -18.6130   41.2440  -10.1090 O.co2  99  ASP99      -0.2456
    120  N        -10.7740   40.3710   -6.3330 N.3   139  GLU139     -0.1231
    121  CA       -11.9450   39.5120   -6.1460 C.3   139  GLU139      0.1699
    122  C        -12.3180   39.3930   -4.6650 C.2   139  GLU139      0.2592
    123  O        -13.4810   39.1630   -4.3340 O.2   139  GLU139     -0.2718
    124  CB       -11.6900   38.1080   -6.7100 C.3   139  GLU139      0.0402
    125  CG       -11.4820   38.0890   -8.2240 C.3   139  GLU139      0.1161
    126  CD       -11.2330   36.6550   -8.6870 C.2   139  GLU139      0.3649
    127  OE1      -10.1820   36.0760   -8.3380 O.co2 139  GLU139     -0.2457
    128  OE2      -12.0950   36.0990   -9.3980 O.co2 139  GLU139     -0.2457
    129  N        -11.3420   39.5540   -3.7740 N.am  140  ASN140     -0.1974
    130  CA       -11.6260   39.4380   -2.3440 C.3   140  ASN140      0.1688
    131  C        -11.8290   40.7680   -1.6400 C.2   140  ASN140      0.2292
    132  O        -11.6440   40.8690   -0.4250 O.2   140  ASN140     -0.2864
    133  CB       -10.5250   38.6380   -1.6340 C.3   140  ASN140      0.1181
    134  CG       -10.7280   37.1760   -2.0270 C.2   140  ASN140      0.2629
    135  OD1      -11.8430   36.7670   -2.3570 O.2   140  ASN140     -0.2716
    136  ND2       -9.6560   36.3820   -1.9740 N.am  140  ASN140     -0.0877
    137  N        -14.6680   43.9030   -1.2440 N.3   142  LEU142     -0.1245
    138  CA       -16.0230   44.3950   -1.4570 C.3   142  LEU142      0.1561
    139  C        -16.0890   45.9100   -1.3130 C.2   142  LEU142      0.2260
    140  O        -15.4460   46.4850   -0.4400 O.2   142  LEU142     -0.2867
    141  CB       -16.9730   43.7550   -0.4420 C.3   142  LEU142      0.0270
    142  CG       -17.9140   42.6550   -0.9340 C.3   142  LEU142      0.0019
    143  CD1      -17.2510   41.8340   -2.0220 C.3   142  LEU142      0.0001
    144  CD2      -18.3480   41.7980    0.2480 C.3   142  LEU142      0.0001
    145  N        -12.7100   40.2680    2.2340 N.3   153  ILE153     -0.1231
    146  CA       -13.5020   39.0580    2.4300 C.3   153  ILE153      0.1692
    147  C        -12.7180   37.7950    2.1100 C.2   153  ILE153      0.2592
    148  O        -11.6050   37.8580    1.5880 O.2   153  ILE153     -0.2718
    149  CB       -14.7610   39.0460    1.5310 C.3   153  ILE153      0.0266
    150  CG1      -14.3480   39.1870    0.0660 C.3   153  ILE153      0.0019
    151  CG2      -15.7150   40.1690    1.9420 C.3   153  ILE153      0.0020
    152  CD1      -15.5040   38.9230   -0.9010 C.3   153  ILE153      0.0001
    153  N        -13.3350   36.6550    2.4250 N.am  154  ASP154     -0.1974
    154  CA       -12.7950   35.3180    2.1950 C.3   154  ASP154      0.1709
    155  C        -11.4380   35.0210    2.8270 C.2   154  ASP154      0.2293
    156  O        -10.3970   35.0460    2.1690 O.2   154  ASP154     -0.2864
    157  CB       -12.7300   35.0230    0.6930 C.3   154  ASP154      0.1436
    158  CG       -12.3970   33.5530    0.4480 C.2   154  ASP154      0.3671
    159  OD1      -12.4760   32.7460    1.4000 O.co2 154  ASP154     -0.2456
    160  OD2      -12.0660   33.1990   -0.7010 O.co2 154  ASP154     -0.2456
@<TRIPOS>BOND
     1   115   114    2
     2   118   117   ar
     3   114   113    1
     4   113   116    1
     5   113   112    1
     6   117   116    1
     7   117   119   ar
     8   128   126   ar
     9   126   127   ar
    10   126   125    1
    11   125   124    1
    12   111   109   ar
    13   107   106    2
    14   110   109   ar
    15     4     3    2
    16   109   108    1
    17    10     9    1
    18    10    11    1
    19   124   121    1
    20   106   105    1
    21     3     9   am
    22     3     2    1
    23   120   121    1
    24   121   122    1
    25    11    12    2
    26   104   105    1
    27   108   105    1
    28     2     1    1
    29     2     5    1
    30   100    99    2
    31    21    23   ar
    32    21    19   ar
    33    23    22   ar
    34     8     6    1
    35   122   123    2
    36   122   129   am
    37     5     6    1
    38    99    98    1
    39    19    18   ar
    40    22    20   ar
    41   129   130    1
    42     6     7    1
    43    97    98    1
    44    27    26    2
    45    98   101    1
    46    13    14    1
    47    18    20   ar
    48    18    17    1
    49   102   101    1
    50   135   134    2
    51   130   131    1
    52   130   133    1
    53    24    25    1
    54   101   103    1
    55   134   136   am
    56   134   133    1
    57   143   142    1
    58    26    25    1
    59    14    17    1
    60    14    15    1
    61   131   132    2
    62    28    25    1
    63    28    30    1
    64    28    29    1
    65   138   139    1
    66   138   137    1
    67   138   141    1
    68   139   140    2
    69    15    16    2
    70   142   141    1
    71   142   144    1
    72   152   150    1
    73   160   158   ar
    74    88    87    1
    75   150   149    1
    76    93    92    2
    77   158   157    1
    78   158   159   ar
    79    85    86    1
    80    85    84    1
    81    87    86    2
    82    87    89    1
    83   157   154    1
    84    92    91    1
    85    84    83    1
    86   149   151    1
    87   149   146    1
    88   148   147    2
    89    95    94    1
    90    95    96    1
    91   147   153   am
    92   147   146    1
    93    94    91    1
    94    43    44    1
    95    43    42    1
    96   156   155    2
    97   154   153    1
    98   154   155    1
    99   145   146    1
   100    41    42    1
   101    41    40    1
   102    91    90    1
   103    35    32    1
   104    96    90    1
   105    37    40    1
   106    37    38    1
   107    37    36    1
   108    90    81   am
   109    83    80    1
   110    32    33    1
   111    32    31    1
   112    38    39    2
   113    81    82    2
   114    81    80    1
   115    80    79    1
   116    33    34    2
   117    73    72    2
   118    61    59    1
   119    79    72   am
   120    52    51   ar
   121    53    51   ar
   122    72    71    1
   123    59    58    1
   124    51    50    1
   125    58    60    1
   126    58    55    1
   127    66    67    1
   128    66    63    1
   129    67    69    1
   130    67    68    1
   131    65    64    2
   132    75    76    1
   133    75    74    1
   134    64    63    1
   135    64    70   am
   136    54    55    1
   137    55    56    1
   138    71    70    1
   139    71    74    1
   140    50    49    1
   141    63    62    1
   142    78    76   ar
   143    76    77   ar
   144    49    46    1
   145    56    57    2
   146    46    45    1
   147    46    47    1
   148    47    48    2
