@<TRIPOS>MOLECULE
tmp/3bguA00.pdb
 103 96 0 0 0
SMALL
GASTEIGER

@<TRIPOS>ATOM
      1  N         32.1180  -28.3120   30.4930 N.3    13  HIS13      -0.1241
      2  CA        31.5690  -26.9750   30.6970 C.3    13  HIS13       0.1621
      3  C         31.5680  -26.6670   32.1880 C.2    13  HIS13       0.2264
      4  O         31.0680  -27.4530   33.0300 O.2    13  HIS13      -0.2867
      5  CB        30.1290  -26.9110   30.1970 C.3    13  HIS13       0.0745
      6  CG        29.3920  -25.7030   30.6790 C.ar   13  HIS13       0.0817
      7  ND1       29.7620  -24.4440   30.2670 N.ar   13  HIS13      -0.2268
      8  CD2       28.3440  -25.5320   31.5280 C.ar   13  HIS13       0.1154
      9  CE1       28.9990  -23.5510   30.8560 C.ar   13  HIS13       0.1986
     10  NE2       28.1350  -24.1810   31.6340 N.ar   13  HIS13      -0.2212
     11  N         30.4490  -23.2720   34.7420 N.3    15  ALA15      -0.1245
     12  CA        30.0160  -21.9140   35.0700 C.3    15  ALA15       0.1562
     13  C         30.0890  -21.6570   36.5680 C.2    15  ALA15       0.2260
     14  O         29.6370  -22.4730   37.3500 O.2    15  ALA15      -0.2867
     15  CB        28.5840  -21.6680   34.5790 C.3    15  ALA15       0.0290
     16  N         28.9560  -18.7950   39.4580 N.3    17  PHE17      -0.1241
     17  CA        28.0200  -17.7370   39.7440 C.3    17  PHE17       0.1605
     18  C         28.3910  -16.9790   41.0140 C.2    17  PHE17       0.2264
     19  O         28.7930  -17.5690   42.0220 O.2    17  PHE17      -0.2867
     20  CB        26.6200  -18.2870   39.9550 C.3    17  PHE17       0.0534
     21  CG        26.1390  -19.1990   38.8860 C.ar   17  PHE17      -0.0203
     22  CD1       26.3810  -18.9660   37.5370 C.ar   17  PHE17      -0.0042
     23  CD2       25.3220  -20.2730   39.2370 C.ar   17  PHE17      -0.0042
     24  CE1       25.8800  -19.9230   36.5960 C.ar   17  PHE17      -0.0003
     25  CE2       24.8580  -21.1980   38.3140 C.ar   17  PHE17      -0.0003
     26  CZ        25.1230  -21.0260   37.0070 C.ar   17  PHE17      -0.0000
     27  N         18.5750  -27.5770   39.2040 N.3    35  LEU35      -0.1245
     28  CA        19.6900  -28.2130   38.5390 C.3    35  LEU35       0.1561
     29  C         19.5600  -29.7550   38.6730 C.2    35  LEU35       0.2260
     30  O         20.0370  -30.4980   37.8100 O.2    35  LEU35      -0.2867
     31  CB        21.0610  -27.7040   39.0070 C.3    35  LEU35       0.0270
     32  CG        21.3170  -26.2300   38.7380 C.3    35  LEU35       0.0019
     33  CD1       22.5520  -25.7710   39.5120 C.3    35  LEU35       0.0001
     34  CD2       21.4280  -26.0030   37.2390 C.3    35  LEU35       0.0001
     35  N         15.9430  -30.5490   36.4210 N.3    38  LEU38      -0.1245
     36  CA        16.0290  -30.0560   35.0540 C.3    38  LEU38       0.1561
     37  C         17.4460  -30.1750   34.4740 C.2    38  LEU38       0.2260
     38  O         17.9930  -29.2280   33.9260 O.2    38  LEU38      -0.2867
     39  CB        15.6220  -28.5630   35.0500 C.3    38  LEU38       0.0270
     40  CG        14.1760  -28.2830   35.3700 C.3    38  LEU38       0.0019
     41  CD1       13.9980  -26.7670   35.5850 C.3    38  LEU38       0.0001
     42  CD2       13.1950  -28.7630   34.2980 C.3    38  LEU38       0.0001
     43  N         28.5080  -24.9030   38.5810 N.3    65  VAL65      -0.1245
     44  CA        27.9190  -26.0500   37.8620 C.3    65  VAL65       0.1561
     45  C         28.9280  -26.5630   36.8070 C.2    65  VAL65       0.2260
     46  O         29.5440  -25.7730   36.0850 O.2    65  VAL65      -0.2867
     47  CB        26.5420  -25.7050   37.2310 C.3    65  VAL65       0.0252
     48  CG1       26.7000  -24.5660   36.2330 C.3    65  VAL65       0.0019
     49  CG2       25.9080  -26.9290   36.5470 C.3    65  VAL65       0.0019
     50  N         22.4690  -29.4920   24.3400 N.3    78  TYR78      -0.1241
     51  CA        22.3400  -29.2040   25.7390 C.3    78  TYR78       0.1605
     52  C         21.9070  -27.7450   25.9350 C.2    78  TYR78       0.2264
     53  O         20.9440  -27.4700   26.6360 O.2    78  TYR78      -0.2867
     54  CB        23.6760  -29.4580   26.4230 C.3    78  TYR78       0.0534
     55  CG        23.8000  -29.1670   27.9080 C.ar   78  TYR78      -0.0201
     56  CD1       23.2340  -30.0400   28.8860 C.ar   78  TYR78      -0.0009
     57  CD2       24.4700  -28.0240   28.3160 C.ar   78  TYR78      -0.0009
     58  CE1       23.4060  -29.7810   30.2410 C.ar   78  TYR78       0.0417
     59  CE2       24.6720  -27.7580   29.6550 C.ar   78  TYR78       0.0417
     60  CZ        24.1200  -28.6030   30.6020 C.ar   78  TYR78       0.1957
     61  OH        24.3230  -28.3030   31.9500 O.3    78  TYR78      -0.2866
     62  N         17.3540  -26.9130   30.0770 N.3    84  HIS84      -0.1241
     63  CA        18.4060  -25.9770   30.2110 C.3    84  HIS84       0.1621
     64  C         17.9410  -24.5380   30.1210 C.2    84  HIS84       0.2264
     65  O         18.3450  -23.6950   30.9290 O.2    84  HIS84      -0.2867
     66  CB        19.4720  -26.2900   29.1640 C.3    84  HIS84       0.0745
     67  CG        20.6820  -25.4430   29.2900 C.ar   84  HIS84       0.0817
     68  ND1       21.6150  -25.6520   30.2780 N.ar   84  HIS84      -0.2268
     69  CD2       21.0860  -24.3510   28.6030 C.ar   84  HIS84       0.1154
     70  CE1       22.5900  -24.7670   30.1420 C.ar   84  HIS84       0.1986
     71  NE2       22.2960  -23.9660   29.1330 N.ar   84  HIS84      -0.2212
     72  N         16.2820  -23.7620   33.3910 N.3    87  ALA87      -0.1231
     73  CA        17.2540  -23.5300   34.4770 C.3    87  ALA87       0.1694
     74  C         17.9560  -22.1500   34.3430 C.2    87  ALA87       0.2591
     75  O         18.1920  -21.4660   35.3130 O.2    87  ALA87      -0.2718
     76  CB        18.3110  -24.6670   34.4810 C.3    87  ALA87       0.0304
     77  N         18.3300  -21.7700   33.1230 N.am   88  LEU88      -0.1980
     78  CA        18.9800  -20.4770   32.8860 C.3    88  LEU88       0.1596
     79  C         18.0650  -19.3570   33.3590 C.2    88  LEU88       0.2287
     80  O         18.5350  -18.3640   33.9290 O.2    88  LEU88      -0.2864
     81  CB        19.2730  -20.2760   31.4060 C.3    88  LEU88       0.0297
     82  CG        20.4290  -21.0850   30.8580 C.3    88  LEU88       0.0022
     83  CD1       20.5110  -20.9160   29.3360 C.3    88  LEU88       0.0001
     84  CD2       21.7690  -20.7650   31.4640 C.3    88  LEU88       0.0001
     85  N         18.0860  -18.9590   37.1910 N.3    91  ILE91      -0.1245
     86  CA        19.3030  -18.3570   37.6670 C.3    91  ILE91       0.1561
     87  C         19.4940  -16.9190   37.2500 C.2    91  ILE91       0.2260
     88  O         20.0050  -16.1050   38.0240 O.2    91  ILE91      -0.2867
     89  CB        20.4890  -19.2180   37.2380 C.3    91  ILE91       0.0252
     90  CG1       20.3720  -20.5620   37.9550 C.3    91  ILE91       0.0019
     91  CG2       21.8340  -18.5490   37.4950 C.3    91  ILE91       0.0019
     92  CD1       21.1070  -21.6770   37.2410 C.3    91  ILE91       0.0001
     93  N         28.5730  -14.0780   36.2780 N.3    97  ARG97      -0.1245
     94  CA        28.7150  -15.4790   35.8310 C.3    97  ARG97       0.1563
     95  C         29.9670  -15.5590   34.9580 C.2    97  ARG97       0.2260
     96  O         30.1130  -14.7310   34.0280 O.2    97  ARG97      -0.2867
     97  CB        27.5330  -15.9070   34.9950 C.3    97  ARG97       0.0307
     98  CG        27.6300  -17.2560   34.3080 C.3    97  ARG97       0.0489
     99  CD        26.5070  -17.5030   33.2990 C.3    97  ARG97       0.2205
    100  NE        26.7070  -18.7590   32.6020 N.pl3  97  ARG97      -0.0865
    101  CZ        27.4670  -18.9010   31.5120 C.cat  97  ARG97       0.5346
    102  NH1       28.1280  -17.8730   30.9830 N.pl3  97  ARG97       0.1354
    103  NH2       27.6350  -20.0920   30.9370 N.pl3  97  ARG97       0.1354
@<TRIPOS>BOND
     1    50    51    1
     2    51    52    1
     3    51    54    1
     4    52    53    2
     5    54    55    1
     6    55    57   ar
     7    55    56   ar
     8    57    59   ar
     9    69    71   ar
    10    69    67   ar
    11    56    58   ar
    12    71    70   ar
    13    66    67    1
    14    66    63    1
    15    67    68   ar
    16    83    82    1
    17    59    60   ar
    18    62    63    1
    19    64    63    1
    20    64    65    2
    21    70    68   ar
    22     5     6    1
    23     5     2    1
    24    58    60   ar
    25     7     6   ar
    26     7     9   ar
    27     1     2    1
    28    60    61    1
    29     6     8   ar
    30     2     3    1
    31     9    10   ar
    32    82    81    1
    33    82    84    1
    34   103   101    1
    35   102   101    1
    36    81    78    1
    37   101   100    2
    38     8    10   ar
    39     3     4    2
    40   100    99    1
    41    78    77    1
    42    78    79    1
    43    77    74   am
    44    99    98    1
    45    79    80    2
    46    72    73    1
    47    38    37    2
    48    96    95    2
    49    42    40    1
    50    98    97    1
    51    74    73    1
    52    74    75    2
    53    37    36    1
    54    73    76    1
    55    15    12    1
    56    11    12    1
    57    95    94    1
    58    97    94    1
    59    39    36    1
    60    39    40    1
    61    36    35    1
    62    12    13    1
    63    40    41    1
    64    94    93    1
    65    46    45    2
    66    48    47    1
    67    49    47    1
    68    13    14    2
    69    24    26   ar
    70    24    22   ar
    71    45    44    1
    72    26    25   ar
    73    85    86    1
    74    47    44    1
    75    89    91    1
    76    89    86    1
    77    89    90    1
    78    34    32    1
    79    92    90    1
    80    87    86    1
    81    87    88    2
    82    22    21   ar
    83    30    29    2
    84    44    43    1
    85    25    23   ar
    86    28    29    1
    87    28    31    1
    88    28    27    1
    89    32    31    1
    90    32    33    1
    91    21    23   ar
    92    21    20    1
    93    16    17    1
    94    17    20    1
    95    17    18    1
    96    18    19    2
