@<TRIPOS>MOLECULE
tmp/3bgxA01.pdb
 127 123 0 0 0
SMALL
GASTEIGER

@<TRIPOS>ATOM
      1  N         41.8540   16.3240   25.1010 N.3    20  ARG20      -0.1245
      2  CA        40.4950   16.8170   25.3070 C.3    20  ARG20       0.1563
      3  C         40.4370   18.3350   25.4330 C.2    20  ARG20       0.2260
      4  O         39.6320   18.9710   24.7530 O.2    20  ARG20      -0.2867
      5  CB        39.8760   16.1630   26.5610 C.3    20  ARG20       0.0307
      6  CG        38.4840   16.6690   26.9130 C.3    20  ARG20       0.0489
      7  CD        37.8810   16.0520   28.1490 C.3    20  ARG20       0.2205
      8  NE        38.7500   16.2950   29.2910 N.pl3  20  ARG20      -0.0865
      9  CZ        38.8670   17.4500   29.9290 C.cat  20  ARG20       0.5346
     10  NH1       38.1160   18.5010   29.5960 N.pl3  20  ARG20       0.1354
     11  NH2       39.7180   17.5440   30.9360 N.pl3  20  ARG20       0.1354
     12  N         39.0290   18.8940   50.4110 N.3    57  GLU57      -0.1245
     13  CA        38.5420   18.0680   49.3010 C.3    57  GLU57       0.1567
     14  C         38.3390   16.6470   49.8080 C.2    57  GLU57       0.2260
     15  O         37.3440   16.0030   49.4750 O.2    57  GLU57      -0.2867
     16  CB        39.5130   18.0950   48.1290 C.3    57  GLU57       0.0388
     17  CG        38.9300   17.6040   46.8190 C.3    57  GLU57       0.1160
     18  CD        39.9590   17.2500   45.8080 C.2    57  GLU57       0.3649
     19  OE1       41.0990   16.8450   46.2090 O.co2  57  GLU57      -0.2457
     20  OE2       39.6290   17.3350   44.5970 O.co2  57  GLU57      -0.2457
     21  N         38.9350   24.9760   44.0210 N.3    78  ILE78      -0.1231
     22  CA        39.6100   24.1060   43.0550 C.3    78  ILE78       0.1692
     23  C         38.7060   23.3560   42.0700 C.2    78  ILE78       0.2592
     24  O         39.2130   22.8290   41.0600 O.2    78  ILE78      -0.2718
     25  CB        40.5480   23.1140   43.7760 C.3    78  ILE78       0.0266
     26  CG1       39.7620   22.1340   44.6610 C.3    78  ILE78       0.0019
     27  CG2       41.6150   23.8790   44.5960 C.3    78  ILE78       0.0020
     28  CD1       40.5530   20.8780   44.9920 C.3    78  ILE78       0.0001
     29  N         37.3940   23.3130   42.3470 N.am   79  TRP79      -0.1976
     30  CA        36.3960   22.6020   41.5240 C.3    79  TRP79       0.1640
     31  C         35.4070   23.5550   40.7740 C.2    79  TRP79       0.2290
     32  O         34.5070   23.0780   40.1010 O.2    79  TRP79      -0.2864
     33  CB        35.6100   21.5750   42.3580 C.3    79  TRP79       0.0576
     34  CG        36.2810   20.2170   42.4560 C.ar   79  TRP79       0.0006
     35  CD1       36.9100   19.6960   43.5310 C.ar   79  TRP79       0.0946
     36  CD2       36.3840   19.2390   41.4220 C.ar   79  TRP79       0.0152
     37  NE1       37.4240   18.4610   43.2420 N.ar   79  TRP79      -0.2442
     38  CE2       37.1080   18.1560   41.9430 C.ar   79  TRP79       0.0810
     39  CE3       35.9520   19.1820   40.0920 C.ar   79  TRP79       0.0012
     40  CZ2       37.3750   17.0110   41.1950 C.ar   79  TRP79       0.0191
     41  CZ3       36.2260   18.0480   39.3510 C.ar   79  TRP79       0.0001
     42  CH2       36.9220   16.9790   39.8970 C.ar   79  TRP79       0.0015
     43  N         34.2390   23.3890   36.7180 N.3    82  TRP82      -0.1241
     44  CA        33.4810   22.2660   36.1360 C.3    82  TRP82       0.1605
     45  C         32.0730   22.1630   36.6850 C.2    82  TRP82       0.2264
     46  O         31.3070   21.3210   36.2340 O.2    82  TRP82      -0.2867
     47  CB        34.2640   20.9320   36.3010 C.3    82  TRP82       0.0550
     48  CG        35.5930   21.0380   35.6550 C.ar   82  TRP82       0.0003
     49  CD1       35.8810   20.7640   34.3500 C.ar   82  TRP82       0.0946
     50  CD2       36.8100   21.5450   36.2370 C.ar   82  TRP82       0.0152
     51  NE1       37.1950   21.0390   34.0870 N.ar   82  TRP82      -0.2442
     52  CE2       37.7960   21.5160   35.2210 C.ar   82  TRP82       0.0810
     53  CE3       37.1640   22.0060   37.5120 C.ar   82  TRP82       0.0012
     54  CZ2       39.1070   21.9650   35.4280 C.ar   82  TRP82       0.0191
     55  CZ3       38.4720   22.4310   37.7280 C.ar   82  TRP82       0.0001
     56  CH2       39.4270   22.4090   36.6970 C.ar   82  TRP82       0.0015
     57  N         33.4340   15.5130   35.1140 N.3   142  LEU142     -0.1245
     58  CA        34.6930   14.9290   34.6370 C.3   142  LEU142      0.1561
     59  C         34.6340   13.4710   35.0020 C.2   142  LEU142      0.2260
     60  O         34.2040   13.1450   36.1290 O.2   142  LEU142     -0.2867
     61  CB        35.9300   15.5500   35.3140 C.3   142  LEU142      0.0270
     62  CG        36.5090   16.8950   34.8540 C.3   142  LEU142      0.0019
     63  CD1       37.6210   17.2960   35.7940 C.3   142  LEU142      0.0001
     64  CD2       37.0390   16.8520   33.3900 C.3   142  LEU142      0.0001
     65  N         47.6750   14.8740   35.6830 N.3   168  ASP168     -0.1239
     66  CA        48.3150   16.1570   35.4170 C.3   168  ASP168      0.1674
     67  C         49.4590   16.2400   36.4000 C.2   168  ASP168      0.2266
     68  O         49.2520   16.3960   37.6420 O.2   168  ASP168     -0.2867
     69  CB        47.2420   17.2580   35.6170 C.3   168  ASP168      0.1410
     70  CG        47.7600   18.6620   35.4650 C.2   168  ASP168      0.3668
     71  OD1       48.9850   18.9080   35.4850 O.co2 168  ASP168     -0.2456
     72  OD2       46.8880   19.5520   35.3440 O.co2 168  ASP168     -0.2456
     73  N         50.0890   19.9970   38.3790 N.3   171  LEU171     -0.1231
     74  CA        49.0460   20.5340   39.2240 C.3   171  LEU171      0.1693
     75  C         48.3190   19.5290   40.0930 C.2   171  LEU171      0.2592
     76  O         48.1250   19.7520   41.3170 O.2   171  LEU171     -0.2718
     77  CB        48.0320   21.2900   38.3940 C.3   171  LEU171      0.0284
     78  CG        48.3560   22.7380   38.0730 C.3   171  LEU171      0.0019
     79  CD1       47.1910   23.2130   37.2400 C.3   171  LEU171      0.0001
     80  CD2       48.6210   23.6780   39.3110 C.3   171  LEU171      0.0001
     81  N         47.9650   18.3990   39.4810 N.am  172  GLY172     -0.1957
     82  CA        47.1500   17.3780   40.1130 C.3   172  GLY172      0.1869
     83  C         47.9130   16.4610   41.0190 C.2   172  GLY172      0.2309
     84  O         47.5610   16.2760   42.1880 O.2   172  GLY172     -0.2863
     85  N         48.6230   17.0570   44.8440 N.3   175  PHE175     -0.1227
     86  CA        47.4020   17.0020   45.6430 C.3   175  PHE175      0.1736
     87  C         46.9590   15.5500   45.8080 C.2   175  PHE175      0.2595
     88  O         46.6280   15.1070   46.9130 O.2   175  PHE175     -0.2718
     89  CB        46.2360   17.7630   44.9950 C.3   175  PHE175      0.0547
     90  CG        46.1520   19.2160   45.3340 C.ar  175  PHE175     -0.0202
     91  CD1       47.2840   20.0380   45.2990 C.ar  175  PHE175     -0.0042
     92  CD2       44.8980   19.7910   45.6030 C.ar  175  PHE175     -0.0042
     93  CE1       47.1700   21.4570   45.5820 C.ar  175  PHE175     -0.0003
     94  CE2       44.7670   21.1580   45.8800 C.ar  175  PHE175     -0.0003
     95  CZ        45.9270   22.0050   45.8670 C.ar  175  PHE175     -0.0000
     96  N         46.9560   14.8010   44.7070 N.am  176  ASN176     -0.1974
     97  CA        46.5100   13.4160   44.7600 C.3   176  ASN176      0.1688
     98  C         47.3440   12.5340   45.6970 C.2   176  ASN176      0.2292
     99  O         46.7540   11.7220   46.3960 O.2   176  ASN176     -0.2864
    100  CB        46.5390   12.8030   43.3680 C.3   176  ASN176      0.1181
    101  CG        45.5820   13.4780   42.4140 C.2   176  ASN176      0.2629
    102  OD1       45.9350   13.7630   41.2650 O.2   176  ASN176     -0.2716
    103  ND2       44.3450   13.7230   42.8710 N.am  176  ASN176     -0.0877
    104  N         51.2320   19.2560   30.8690 N.3   208  TYR208     -0.1241
    105  CA        50.6400   20.1860   29.9130 C.3   208  TYR208      0.1605
    106  C         51.7120   21.0960   29.3190 C.2   208  TYR208      0.2264
    107  O         52.6990   21.3860   29.9610 O.2   208  TYR208     -0.2867
    108  CB        49.4810   20.9810   30.5170 C.3   208  TYR208      0.0534
    109  CG        48.2400   20.1800   30.6230 C.ar  208  TYR208     -0.0201
    110  CD1       47.4180   19.9650   29.5020 C.ar  208  TYR208     -0.0009
    111  CD2       47.8900   19.5820   31.8170 C.ar  208  TYR208     -0.0009
    112  CE1       46.3000   19.1710   29.5950 C.ar  208  TYR208      0.0417
    113  CE2       46.7530   18.8110   31.9190 C.ar  208  TYR208      0.0417
    114  CZ        45.9670   18.5960   30.8180 C.ar  208  TYR208      0.1957
    115  OH        44.8260   17.8240   30.9820 O.3   208  TYR208     -0.2866
    116  N         45.2300   26.0400   34.8610 N.3   261  VAL261     -0.1231
    117  CA        44.5590   24.7460   34.8080 C.3   261  VAL261      0.1692
    118  C         43.8590   24.5800   33.4460 C.2   261  VAL261      0.2591
    119  O         43.2310   25.5000   32.9400 O.2   261  VAL261     -0.2718
    120  CB        43.5630   24.5770   35.9610 C.3   261  VAL261      0.0266
    121  CG1       42.3860   25.4670   35.7390 C.3   261  VAL261      0.0020
    122  CG2       43.1120   23.1540   36.0630 C.3   261  VAL261      0.0020
    123  N         43.9900   23.3850   32.8730 N.am  262  ALA262     -0.1980
    124  CA        43.4280   23.0700   31.5730 C.3   262  ALA262      0.1597
    125  C         42.0050   22.6050   31.8300 C.2   262  ALA262      0.2287
    126  O         41.7710   21.6590   32.5990 O.2   262  ALA262     -0.2864
    127  CB        44.2610   21.9950   30.8990 C.3   262  ALA262      0.0319
@<TRIPOS>BOND
     1     4     3    2
     2     1     2    1
     3     2     3    1
     4     2     5    1
     5     5     6    1
     6     6     7    1
     7     7     8    1
     8     8     9    2
     9   106   105    1
    10   106   107    2
    11   110   112   ar
    12   110   109   ar
    13   112   114   ar
    14    10     9    1
    15   105   108    1
    16   105   104    1
    17     9    11    1
    18   108   109    1
    19   109   111   ar
    20   114   115    1
    21   114   113   ar
    22   127   124    1
    23   124   125    1
    24   124   123    1
    25   111   113   ar
    26   125   126    2
    27   123   118   am
    28   119   118    2
    29    64    62    1
    30   118   117    1
    31    51    49   ar
    32    51    52   ar
    33    49    48   ar
    34    58    59    1
    35    58    57    1
    36    58    61    1
    37   117   116    1
    38   117   120    1
    39    62    61    1
    40    62    63    1
    41    59    60    2
    42    52    54   ar
    43    52    50   ar
    44    72    70   ar
    45    66    69    1
    46    66    65    1
    47    66    67    1
    48    54    56   ar
    49    70    71   ar
    50    70    69    1
    51    48    50   ar
    52    48    47    1
    53   121   120    1
    54   120   122    1
    55    44    47    1
    56    44    45    1
    57    44    43    1
    58    46    45    2
    59    50    53   ar
    60    67    68    2
    61    56    55   ar
    62    79    78    1
    63    53    55   ar
    64    78    77    1
    65    78    80    1
    66    73    74    1
    67    77    74    1
    68    74    75    1
    69    41    42   ar
    70    41    39   ar
    71    81    75   am
    72    81    82    1
    73    42    40   ar
    74    39    36   ar
    75    75    76    2
    76    32    31    2
    77    82    83    1
    78    31    30    1
    79    83    84    2
    80    24    23    2
    81    40    38   ar
    82   102   101    2
    83    36    38   ar
    84    36    34   ar
    85    30    29    1
    86    30    33    1
    87    38    37   ar
    88    23    29   am
    89    23    22    1
    90    33    34    1
    91   101   103   am
    92   101   100    1
    93    34    35   ar
    94    22    25    1
    95    22    21    1
    96    37    35   ar
    97   100    97    1
    98    25    27    1
    99    25    26    1
   100    20    18   ar
   101    26    28    1
   102    96    97    1
   103    96    87   am
   104    97    98    1
   105    85    86    1
   106    89    90    1
   107    89    86    1
   108    91    90   ar
   109    91    93   ar
   110    90    92   ar
   111    93    95   ar
   112    92    94   ar
   113    86    87    1
   114    98    99    2
   115    18    19   ar
   116    18    17    1
   117    87    88    2
   118    95    94   ar
   119    17    16    1
   120    16    13    1
   121    13    14    1
   122    13    12    1
   123    15    14    2
