@<TRIPOS>MOLECULE
tmp/3bgzA00.pdb
 173 162 0 0 0
SMALL
GASTEIGER

@<TRIPOS>ATOM
      1  N        -24.9760   33.6630   -5.1520 N.3    12  LEU12      -0.1231
      2  CA       -24.1420   34.7700   -5.6280 C.3    12  LEU12       0.1693
      3  C        -22.9610   34.2440   -6.4110 C.2    12  LEU12       0.2592
      4  O        -22.5420   34.8560   -7.3850 O.2    12  LEU12      -0.2718
      5  CB       -23.6860   35.6740   -4.4840 C.3    12  LEU12       0.0284
      6  CG       -24.8340   36.4840   -3.8830 C.3    12  LEU12       0.0019
      7  CD1      -24.4410   37.1230   -2.5580 C.3    12  LEU12       0.0001
      8  CD2      -25.3200   37.5290   -4.8900 C.3    12  LEU12       0.0001
      9  N        -22.4370   33.0970   -5.9960 N.am   13  GLY13      -0.1957
     10  CA       -21.3340   32.4760   -6.7170 C.3    13  GLY13       0.1869
     11  C        -20.7700   31.2850   -5.9950 C.2    13  GLY13       0.2309
     12  O        -21.1990   30.9400   -4.8960 O.2    13  GLY13      -0.2863
     13  N        -13.7340   28.6310   -2.6900 N.3    17  PHE17      -0.1241
     14  CA       -14.2460   29.0480   -1.3830 C.3    17  PHE17       0.1605
     15  C        -15.5580   28.3490   -0.9550 C.2    17  PHE17       0.2264
     16  O        -16.0080   28.5380    0.1790 O.2    17  PHE17      -0.2867
     17  CB       -14.4850   30.5570   -1.4150 C.3    17  PHE17       0.0534
     18  CG       -15.3340   30.9950   -2.5770 C.ar   17  PHE17      -0.0203
     19  CD1      -14.7360   31.3580   -3.7960 C.ar   17  PHE17      -0.0042
     20  CD2      -16.7360   31.0090   -2.4710 C.ar   17  PHE17      -0.0042
     21  CE1      -15.5220   31.7400   -4.8960 C.ar   17  PHE17      -0.0003
     22  CE2      -17.5290   31.3940   -3.5490 C.ar   17  PHE17      -0.0003
     23  CZ       -16.9250   31.7690   -4.7640 C.ar   17  PHE17      -0.0000
     24  N        -21.7250   30.6900   -2.1500 N.3    20  VAL20      -0.1245
     25  CA       -22.2070   31.8520   -1.3870 C.3    20  VAL20       0.1561
     26  C        -23.6070   32.2630   -1.8640 C.2    20  VAL20       0.2260
     27  O        -23.8200   32.4470   -3.0560 O.2    20  VAL20      -0.2867
     28  CB       -21.2240   33.0650   -1.4920 C.3    20  VAL20       0.0252
     29  CG1      -21.7860   34.3210   -0.8110 C.3    20  VAL20       0.0019
     30  CG2      -19.8260   32.7080   -0.9480 C.3    20  VAL20       0.0019
     31  N        -24.6370   37.2650    3.9840 N.3    33  ALA33      -0.1245
     32  CA       -24.1090   36.3370    2.9890 C.3    33  ALA33       0.1562
     33  C        -24.0070   34.9870    3.6630 C.2    33  ALA33       0.2260
     34  O        -23.5650   34.8890    4.8030 O.2    33  ALA33      -0.2867
     35  CB       -22.7430   36.7910    2.4620 C.3    33  ALA33       0.0290
     36  N        -22.4650   31.3720    3.4360 N.3    35  LYS35      -0.1245
     37  CA       -21.3440   30.6950    2.8100 C.3    35  LYS35       0.1561
     38  C        -21.2970   29.2330    3.2300 C.2    35  LYS35       0.2260
     39  O        -21.2130   28.9230    4.4130 O.2    35  LYS35      -0.2867
     40  CB       -20.0350   31.4130    3.1620 C.3    35  LYS35       0.0271
     41  CG       -18.7990   30.9140    2.3880 C.3    35  LYS35       0.0035
     42  CD       -17.5130   31.5120    2.9560 C.3    35  LYS35       0.0206
     43  CE       -16.3560   31.3670    1.9700 C.3    35  LYS35       0.1093
     44  NZ       -15.2440   32.3490    2.2240 N.3    35  LYS35      -0.1314
     45  N        -10.8830   29.0990    8.9370 N.3    52  GLU52      -0.1245
     46  CA       -11.5760   30.2890    8.4740 C.3    52  GLU52       0.1567
     47  C        -12.3780   30.9160    9.6040 C.2    52  GLU52       0.2260
     48  O        -12.3310   32.1290    9.8050 O.2    52  GLU52      -0.2867
     49  CB       -12.4650   29.9560    7.2680 C.3    52  GLU52       0.0388
     50  CG       -13.2220   31.1450    6.7070 C.3    52  GLU52       0.1160
     51  CD       -13.9110   30.8830    5.3630 C.2    52  GLU52       0.3649
     52  OE1      -14.4180   31.8590    4.7750 O.co2  52  GLU52      -0.2457
     53  OE2      -13.9470   29.7340    4.8870 O.co2  52  GLU52      -0.2457
     54  N        -11.8120   34.3670   11.4350 N.3    56  LEU56      -0.1245
     55  CA       -12.8870   35.3660   11.4260 C.3    56  LEU56       0.1561
     56  C        -13.2360   35.8730   12.8240 C.2    56  LEU56       0.2260
     57  O        -13.4620   37.0680   13.0030 O.2    56  LEU56      -0.2867
     58  CB       -14.1390   34.8380   10.7010 C.3    56  LEU56       0.0270
     59  CG       -14.1250   34.8400    9.1680 C.3    56  LEU56       0.0019
     60  CD1      -15.1720   33.8780    8.6430 C.3    56  LEU56       0.0001
     61  CD2      -14.3360   36.2420    8.6010 C.3    56  LEU56       0.0001
     62  N        -14.5320   41.9510    6.8990 N.3    67  ILE67      -0.1245
     63  CA       -15.9080   41.4420    6.9520 C.3    67  ILE67       0.1561
     64  C        -16.2350   40.8090    8.3180 C.2    67  ILE67       0.2260
     65  O        -15.3840   40.1410    8.9160 O.2    67  ILE67      -0.2867
     66  CB       -16.1810   40.4440    5.8100 C.3    67  ILE67       0.0252
     67  CG1      -17.6830   40.3910    5.4910 C.3    67  ILE67       0.0019
     68  CG2      -15.5080   39.0490    6.0820 C.3    67  ILE67       0.0019
     69  CD1      -18.1420   41.4940    4.5650 C.3    67  ILE67       0.0001
     70  N        -22.3190   35.8570    7.2260 N.3    83  LEU83      -0.1231
     71  CA       -21.4020   36.9750    7.2220 C.3    83  LEU83       0.1693
     72  C        -22.1790   38.2220    6.8820 C.2    83  LEU83       0.2592
     73  O        -23.2520   38.1610    6.2700 O.2    83  LEU83      -0.2718
     74  CB       -20.3360   36.8070    6.1340 C.3    83  LEU83       0.0284
     75  CG       -19.1770   35.8150    6.0820 C.3    83  LEU83       0.0019
     76  CD1      -18.2100   35.9080    7.2540 C.3    83  LEU83       0.0001
     77  CD2      -19.6470   34.3990    5.8530 C.3    83  LEU83       0.0001
     78  N        -21.6060   39.3550    7.2490 N.am   84  GLU84      -0.1966
     79  CA       -22.0830   40.6380    6.7930 C.3    84  GLU84       0.1733
     80  C        -22.1830   40.7150    5.2640 C.2    84  GLU84       0.2616
     81  O        -21.3370   40.1770    4.5310 O.2    84  GLU84      -0.2715
     82  CB       -21.1560   41.7090    7.3430 C.3    84  GLU84       0.0429
     83  CG       -21.1270   42.9820    6.5610 C.3    84  GLU84       0.1163
     84  CD       -20.1450   43.9700    7.1150 C.2    84  GLU84       0.3649
     85  OE1      -19.1620   43.5480    7.7760 O.co2  84  GLU84      -0.2457
     86  OE2      -20.3740   45.1750    6.8810 O.co2  84  GLU84      -0.2457
     87  N        -23.2470   41.3480    4.7780 N.am   85  ARG85      -0.1977
     88  CA       -23.3390   41.6750    3.3640 C.3    85  ARG85       0.1597
     89  C        -23.6890   43.1610    3.1750 C.2    85  ARG85       0.2287
     90  O        -24.8030   43.5870    3.5030 O.2    85  ARG85      -0.2864
     91  CB       -24.3230   40.7490    2.6340 C.3    85  ARG85       0.0334
     92  CG       -24.7200   41.2150    1.2300 C.3    85  ARG85       0.0492
     93  CD       -25.5450   40.1840    0.4690 C.3    85  ARG85       0.2205
     94  NE       -26.8940   39.9840    1.0150 N.pl3  85  ARG85      -0.0865
     95  CZ       -27.9720   40.7190    0.7170 C.cat  85  ARG85       0.5346
     96  NH1      -27.9060   41.7560   -0.1170 N.pl3  85  ARG85       0.1354
     97  NH2      -29.1370   40.4200    1.2850 N.pl3  85  ARG85       0.1354
     98  N        -23.3210   46.7870   -3.2080 N.3    89  VAL89      -0.1231
     99  CA       -21.9640   46.3090   -3.0600 C.3    89  VAL89       0.1692
    100  C        -21.4420   45.8910   -4.4280 C.2    89  VAL89       0.2592
    101  O        -22.2190   45.4670   -5.2870 O.2    89  VAL89      -0.2718
    102  CB       -21.9150   45.1090   -2.0610 C.3    89  VAL89       0.0266
    103  CG1      -22.5660   43.8690   -2.6710 C.3    89  VAL89       0.0020
    104  CG2      -20.5070   44.8140   -1.6110 C.3    89  VAL89       0.0020
    105  N        -20.1310   46.0350   -4.6320 N.am   90  GLN90      -0.1966
    106  CA       -19.4530   45.4340   -5.7800 C.3    90  GLN90       0.1733
    107  C        -18.0280   45.0260   -5.3900 C.2    90  GLN90       0.2616
    108  O        -17.3460   45.7450   -4.6650 O.2    90  GLN90      -0.2715
    109  CB       -19.4460   46.4060   -6.9580 C.3    90  GLN90       0.0408
    110  CG       -19.1330   45.7570   -8.2930 C.3    90  GLN90       0.0908
    111  CD       -19.1710   46.7400   -9.4430 C.2    90  GLN90       0.2608
    112  OE1      -18.9450   47.9360   -9.2620 O.2    90  GLN90      -0.2717
    113  NE2      -19.4510   46.2420  -10.6360 N.am   90  GLN90      -0.0878
    114  N        -17.5700   43.8670   -5.8570 N.am   91  ASP91      -0.1971
    115  CA       -16.1920   43.5000   -5.5890 C.3    91  ASP91       0.1709
    116  C        -15.2290   44.3290   -6.4620 C.2    91  ASP91       0.2293
    117  O        -15.6460   44.8890   -7.4790 O.2    91  ASP91      -0.2864
    118  CB       -15.9600   41.9710   -5.6030 C.3    91  ASP91       0.1436
    119  CG       -15.8170   41.3750   -6.9960 C.2    91  ASP91       0.3671
    120  OD1      -15.7100   42.0990   -8.0020 O.co2  91  ASP91      -0.2456
    121  OD2      -15.7760   40.1340   -7.0810 O.co2  91  ASP91      -0.2456
    122  N        -10.7230   40.3480   -6.1730 N.3   134  GLU134     -0.1231
    123  CA       -11.9110   39.5020   -5.9400 C.3   134  GLU134      0.1699
    124  C        -12.2940   39.3600   -4.4720 C.2   134  GLU134      0.2592
    125  O        -13.4530   39.0420   -4.1720 O.2   134  GLU134     -0.2718
    126  CB       -11.7300   38.0950   -6.5130 C.3   134  GLU134      0.0402
    127  CG       -11.6780   38.0160   -8.0320 C.3   134  GLU134      0.1161
    128  CD       -11.4100   36.5880   -8.5060 C.2   134  GLU134      0.3649
    129  OE1      -10.3580   36.0280   -8.1480 O.co2 134  GLU134     -0.2457
    130  OE2      -12.2540   36.0060   -9.2090 O.co2 134  GLU134     -0.2457
    131  N        -11.3300   39.5790   -3.5680 N.am  135  ASN135     -0.1974
    132  CA       -11.5690   39.4460   -2.1290 C.3   135  ASN135      0.1688
    133  C        -11.7840   40.7740   -1.4120 C.2   135  ASN135      0.2292
    134  O        -11.7220   40.8570   -0.1820 O.2   135  ASN135     -0.2864
    135  CB       -10.4580   38.6060   -1.4820 C.3   135  ASN135      0.1181
    136  CG       -10.5660   37.1350   -1.8500 C.2   135  ASN135      0.2629
    137  OD1      -11.6330   36.6790   -2.2350 O.2   135  ASN135     -0.2716
    138  ND2       -9.4750   36.3940   -1.7390 N.am  135  ASN135     -0.0877
    139  N        -14.5680   43.8920   -1.1580 N.3   137  LEU137     -0.1245
    140  CA       -15.9300   44.3680   -1.3930 C.3   137  LEU137      0.1561
    141  C        -16.0040   45.8590   -1.1810 C.2   137  LEU137      0.2260
    142  O        -15.4430   46.3730   -0.2160 O.2   137  LEU137     -0.2867
    143  CB       -16.9040   43.6770   -0.4390 C.3   137  LEU137      0.0270
    144  CG       -17.6500   42.4640   -0.9850 C.3   137  LEU137      0.0019
    145  CD1      -16.8480   41.6770   -2.0180 C.3   137  LEU137      0.0001
    146  CD2      -18.1380   41.5840    0.1670 C.3   137  LEU137      0.0001
    147  N        -12.6430   40.0970    2.4440 N.3   148  ILE148     -0.1231
    148  CA       -13.4700   38.8940    2.5770 C.3   148  ILE148      0.1692
    149  C        -12.6400   37.6510    2.3060 C.2   148  ILE148      0.2592
    150  O        -11.4980   37.7440    1.8470 O.2   148  ILE148     -0.2718
    151  CB       -14.7440   38.9230    1.6420 C.3   148  ILE148      0.0266
    152  CG1      -14.3580   39.1060    0.1570 C.3   148  ILE148      0.0019
    153  CG2      -15.7090   40.0170    2.0900 C.3   148  ILE148      0.0020
    154  CD1      -15.2570   38.3890   -0.8670 C.3   148  ILE148      0.0001
    155  N        -13.2230   36.4940    2.6170 N.am  149  ASP149     -0.1960
    156  CA       -12.6710   35.1760    2.2890 C.3   149  ASP149      0.1840
    157  C        -11.3430   34.8260    2.9710 C.2   149  ASP149      0.2622
    158  O        -10.2540   34.8810    2.3770 O.2   149  ASP149     -0.2715
    159  CB       -12.6290   34.9220    0.7780 C.3   149  ASP149      0.1450
    160  CG       -12.3180   33.4710    0.4450 C.2   149  ASP149      0.3671
    161  OD1      -12.5390   32.5800    1.3130 O.co2 149  ASP149     -0.2456
    162  OD2      -11.8440   33.2140   -0.6830 O.co2 149  ASP149     -0.2456
    163  N        -11.4660   34.4130    4.2240 N.am  150  PHE150     -0.1974
    164  CA       -10.3190   34.0460    5.0310 C.3   150  PHE150      0.1639
    165  C        -10.0310   32.5520    4.9170 C.2   150  PHE150      0.2290
    166  O         -9.2790   31.9930    5.7130 O.2   150  PHE150     -0.2864
    167  CB       -10.5440   34.4840    6.4810 C.3   150  PHE150      0.0560
    168  CG       -10.3820   35.9680    6.6850 C.ar  150  PHE150     -0.0200
    169  CD1      -11.3690   36.8570    6.2630 C.ar  150  PHE150     -0.0042
    170  CD2       -9.2170   36.4810    7.2760 C.ar  150  PHE150     -0.0042
    171  CE1      -11.2140   38.2430    6.4360 C.ar  150  PHE150     -0.0003
    172  CE2       -9.0510   37.8600    7.4610 C.ar  150  PHE150     -0.0003
    173  CZ       -10.0370   38.7400    7.0420 C.ar  150  PHE150     -0.0000
@<TRIPOS>BOND
     1   113   111   am
     2   111   112    2
     3   111   110    1
     4   130   128   ar
     5   128   129   ar
     6   128   127    1
     7   110   109    1
     8   127   126    1
     9   120   119   ar
    10   117   116    2
    11     4     3    2
    12   121   119   ar
    13   119   118    1
    14   109   106    1
    15    10     9    1
    16    10    11    1
    17   126   123    1
    18   116   115    1
    19     3     9   am
    20     3     2    1
    21   122   123    1
    22    11    12    2
    23   123   124    1
    24   114   115    1
    25   114   107   am
    26   106   107    1
    27   106   105    1
    28     2     1    1
    29     2     5    1
    30   118   115    1
    31   107   108    2
    32   101   100    2
    33    21    23   ar
    34    21    19   ar
    35     8     6    1
    36    23    22   ar
    37   105   100   am
    38     5     6    1
    39   124   125    2
    40   124   131   am
    41   100    99    1
    42     6     7    1
    43    19    18   ar
    44   131   132    1
    45    22    20   ar
    46    98    99    1
    47    99   102    1
    48    27    26    2
    49    13    14    1
    50   103   102    1
    51    18    20   ar
    52    18    17    1
    53   137   136    2
    54    24    25    1
    55   132   135    1
    56   132   133    1
    57   102   104    1
    58   145   144    1
    59    26    25    1
    60   136   138   am
    61   136   135    1
    62    28    25    1
    63    28    30    1
    64    28    29    1
    65    17    14    1
    66   133   134    2
    67   140   141    1
    68   140   139    1
    69   140   143    1
    70    14    15    1
    71   141   142    2
    72   144   143    1
    73   144   146    1
    74    15    16    2
    75   154   152    1
    76   162   160   ar
    77    96    95    1
    78   152   151    1
    79   160   159    1
    80   160   161   ar
    81    93    94    1
    82    93    92    1
    83    95    94    2
    84    95    97    1
    85   159   156    1
    86    92    91    1
    87   151   153    1
    88   151   148    1
    89   150   149    2
    90    43    44    1
    91    43    42    1
    92   156   155    1
    93   156   157    1
    94   149   148    1
    95   149   155   am
    96   158   157    2
    97    41    42    1
    98    41    40    1
    99   147   148    1
   100    35    32    1
   101    91    88    1
   102    37    40    1
   103    37    38    1
   104    37    36    1
   105   157   163   am
   106    32    33    1
   107    32    31    1
   108    89    88    1
   109    89    90    2
   110    38    39    2
   111    88    87    1
   112    33    34    2
   113   163   164    1
   114    81    80    2
   115    69    67    1
   116    52    51   ar
   117    87    80   am
   118    53    51   ar
   119   165   164    1
   120   165   166    2
   121   164   167    1
   122    80    79    1
   123    51    50    1
   124    67    66    1
   125    66    68    1
   126    66    63    1
   127    77    75    1
   128    75    74    1
   129    75    76    1
   130    74    71    1
   131   169   171   ar
   132   169   168   ar
   133    73    72    2
   134   171   173   ar
   135   167   168    1
   136    83    84    1
   137    83    82    1
   138   168   170   ar
   139    50    49    1
   140    79    78    1
   141    79    82    1
   142    86    84   ar
   143    72    71    1
   144    72    78   am
   145    62    63    1
   146    63    64    1
   147   173   172   ar
   148    84    85   ar
   149    71    70    1
   150    49    46    1
   151   170   172   ar
   152    64    65    2
   153    46    45    1
   154    46    47    1
   155    61    59    1
   156    60    59    1
   157    59    58    1
   158    47    48    2
   159    58    55    1
   160    55    54    1
   161    55    56    1
   162    56    57    2
