@<TRIPOS>MOLECULE
tmp/3bh7A00.pdb
 154 148 0 0 0
SMALL
GASTEIGER

@<TRIPOS>ATOM
      1  N         -4.5790    7.6490  -23.8860 N.3    10  ASP10      -0.1225
      2  CA        -5.3450    8.2510  -24.9690 C.3    10  ASP10       0.1805
      3  C         -6.5590    8.9950  -24.4120 C.2    10  ASP10       0.2598
      4  O         -7.1960    8.5270  -23.4700 O.2    10  ASP10      -0.2718
      5  CB        -5.7430    7.1970  -26.0330 C.3    10  ASP10       0.1424
      6  CG        -6.4090    5.9410  -25.4430 C.2    10  ASP10       0.3668
      7  OD1       -5.9610    5.4040  -24.4000 O.co2  10  ASP10      -0.2456
      8  OD2       -7.3770    5.4500  -26.0630 O.co2  10  ASP10      -0.2456
      9  N         -6.8330   10.1810  -24.9580 N.am   11  ASN11      -0.1960
     10  CA        -8.0010   10.9850  -24.5740 C.3    11  ASN11       0.1819
     11  C         -7.8710   11.6950  -23.2080 C.2    11  ASN11       0.2621
     12  O         -8.8410   12.2560  -22.7080 O.2    11  ASN11      -0.2715
     13  CB        -9.2910   10.1350  -24.6360 C.3    11  ASN11       0.1195
     14  CG       -10.5630   10.9780  -24.6580 C.2    11  ASN11       0.2630
     15  OD1      -10.6990   11.8790  -25.4770 O.2    11  ASN11      -0.2716
     16  ND2      -11.5110   10.6640  -23.7650 N.am   11  ASN11      -0.0877
     17  N         -6.6740   11.6880  -22.6200 N.am   12  ALA12      -0.1963
     18  CA        -6.4590   12.3050  -21.3070 C.3    12  ALA12       0.1728
     19  C         -6.5080   13.8270  -21.3700 C.2    12  ALA12       0.2617
     20  O         -6.8820   14.4860  -20.3920 O.2    12  ALA12      -0.2715
     21  CB        -5.1280   11.8470  -20.7050 C.3    12  ALA12       0.0334
     22  N         -6.1010   14.3690  -22.5140 N.am   13  GLY13      -0.1940
     23  CA        -6.0460   15.8080  -22.7340 C.3    13  GLY13       0.2014
     24  C         -4.6450   16.3680  -22.9220 C.2    13  GLY13       0.2639
     25  O         -4.4410   17.5700  -22.7630 O.2    13  GLY13      -0.2714
     26  N         -3.6810   15.5160  -23.2690 N.am   14  LYS14      -0.1963
     27  CA        -2.2830   15.9440  -23.3990 C.3    14  LYS14       0.1728
     28  C         -2.0990   17.0470  -24.4540 C.2    14  LYS14       0.2617
     29  O         -1.4390   18.0530  -24.2020 O.2    14  LYS14      -0.2715
     30  CB        -1.3590   14.7550  -23.7170 C.3    14  LYS14       0.0311
     31  CG        -1.4700   13.5740  -22.7420 C.3    14  LYS14       0.0038
     32  CD        -0.5770   12.4000  -23.1550 C.3    14  LYS14       0.0206
     33  CE        -1.0580   11.6720  -24.4130 C.3    14  LYS14       0.1093
     34  NZ        -2.4220   11.0800  -24.2740 N.3    14  LYS14      -0.1314
     35  N         -2.6830   16.8600  -25.6340 N.am   15  THR15      -0.1937
     36  CA        -2.5030   17.8460  -26.7140 C.3    15  THR15       0.2028
     37  C         -3.2790   19.1210  -26.4230 C.2    15  THR15       0.2642
     38  O         -2.8160   20.2170  -26.7370 O.2    15  THR15      -0.2714
     39  CB        -2.9110   17.2780  -28.0760 C.3    15  THR15       0.1808
     40  OG1       -2.2160   16.0460  -28.2870 O.3    15  THR15      -0.2208
     41  CG2       -2.5790   18.2490  -29.2100 C.3    15  THR15       0.0379
     42  N         -4.4520   18.9690  -25.8180 N.am   16  THR16      -0.1950
     43  CA        -5.2300   20.1090  -25.3570 C.3    16  THR16       0.1897
     44  C         -4.3810   20.9110  -24.3680 C.2    16  THR16       0.2313
     45  O         -4.2970   22.1290  -24.4760 O.2    16  THR16      -0.2863
     46  CB        -6.5790   19.6690  -24.7550 C.3    16  THR16       0.1794
     47  OG1       -7.3070   18.9240  -25.7400 O.3    16  THR16      -0.2208
     48  CG2       -7.4190   20.8700  -24.3240 C.3    16  THR16       0.0378
     49  N         -7.5870   26.2790  -28.3840 N.3    26  ILE26      -0.1245
     50  CA        -7.8380   25.0970  -27.5690 C.3    26  ILE26       0.1561
     51  C         -9.0470   24.2910  -28.0570 C.2    26  ILE26       0.2260
     52  O         -9.2470   23.1430  -27.6490 O.2    26  ILE26      -0.2867
     53  CB        -8.0230   25.5160  -26.0690 C.3    26  ILE26       0.0252
     54  CG1       -7.6320   24.3850  -25.1270 C.3    26  ILE26       0.0019
     55  CG2       -9.4340   26.0540  -25.7800 C.3    26  ILE26       0.0019
     56  CD1       -6.1460   24.2570  -24.9690 C.3    26  ILE26       0.0001
     57  N         -8.8860   20.1050  -31.6390 N.3    29  ILE29      -0.1231
     58  CA        -7.7270   19.2330  -31.4180 C.3    29  ILE29       0.1692
     59  C         -8.0060   17.8560  -32.0100 C.2    29  ILE29       0.2593
     60  O         -9.0140   17.2420  -31.6710 O.2    29  ILE29      -0.2718
     61  CB        -7.4430   19.0640  -29.8910 C.3    29  ILE29       0.0266
     62  CG1       -7.1570   20.4160  -29.2060 C.3    29  ILE29       0.0019
     63  CG2       -6.3410   18.0050  -29.6330 C.3    29  ILE29       0.0020
     64  CD1       -5.9300   21.1650  -29.7160 C.3    29  ILE29       0.0001
     65  N         -7.1290   17.3780  -32.8910 N.am   30  THR30      -0.1940
     66  CA        -7.2540   16.0140  -33.4260 C.3    30  THR30       0.2013
     67  C         -6.5140   14.9940  -32.5440 C.2    30  THR30       0.2484
     68  O         -5.5090   15.3390  -31.9250 O.2    30  THR30      -0.2729
     69  CB        -6.8070   15.9110  -34.9220 C.3    30  THR30       0.1807
     70  OG1       -7.3540   14.7210  -35.5120 O.3    30  THR30      -0.2208
     71  CG2       -5.2920   15.8930  -35.0640 C.3    30  THR30       0.0379
     72  N         -7.0260   13.7470  -32.4590 N.am   31  PRO31      -0.2715
     73  CA        -6.2400   12.7090  -31.7850 C.3    31  PRO31       0.1536
     74  C         -4.8470   12.5580  -32.4080 C.2    31  PRO31       0.2599
     75  O         -4.7000   12.6380  -33.6330 O.2    31  PRO31      -0.2715
     76  CB        -7.0790   11.4430  -31.9930 C.3    31  PRO31       0.0310
     77  CG        -8.4850   11.9580  -32.1370 C.3    31  PRO31       0.0237
     78  CD        -8.3320   13.2300  -32.9140 C.3    31  PRO31       0.0939
     79  N         -3.8350   12.3670  -31.5620 N.am   32  THR32      -0.1951
     80  CA        -2.4450   12.3570  -32.0090 C.3    32  THR32       0.1897
     81  C         -2.0480   10.9620  -32.4660 C.2    32  THR32       0.2313
     82  O         -2.1850   10.0050  -31.7100 O.2    32  THR32      -0.2863
     83  CB        -1.4900   12.7950  -30.8650 C.3    32  THR32       0.1794
     84  OG1       -2.0070   13.9690  -30.2250 O.3    32  THR32      -0.2208
     85  CG2       -0.0980   13.0700  -31.3850 C.3    32  THR32       0.0378
     86  N          1.3790   10.4460  -28.5990 N.3    53  GLY53      -0.1210
     87  CA         0.1150    9.7030  -28.6900 C.3    53  GLY53       0.1956
     88  C          0.0450    8.6140  -27.6350 C.2    53  GLY53       0.2612
     89  O          1.0490    7.9440  -27.3550 O.2    53  GLY53      -0.2717
     90  N         -1.1370    8.4240  -27.0560 N.am   54  GLY54      -0.1942
     91  CA        -1.2830    7.5590  -25.8890 C.3    54  GLY54       0.2014
     92  C         -2.1390    6.3090  -26.0170 C.2    54  GLY54       0.2638
     93  O         -2.4380    5.6690  -25.0070 O.2    54  GLY54      -0.2714
     94  N         -2.5380    5.9660  -27.2410 N.am   55  GLN55      -0.1977
     95  CA        -3.3010    4.7340  -27.4930 C.3    55  GLN55       0.1601
     96  C         -2.4960    3.5340  -27.0140 C.2    55  GLN55       0.2287
     97  O         -1.2700    3.5130  -27.1400 O.2    55  GLN55      -0.2864
     98  CB        -3.6230    4.5640  -28.9830 C.3    55  GLN55       0.0394
     99  CG        -4.8730    5.3030  -29.4720 C.3    55  GLN55       0.0908
    100  CD        -4.6790    6.8080  -29.5700 C.2    55  GLN55       0.2608
    101  OE1       -3.5520    7.3020  -29.5620 O.2    55  GLN55      -0.2717
    102  NE2       -5.7860    7.5440  -29.6760 N.am   55  GLN55      -0.0878
    103  N         -6.6660   16.1320  -14.8900 N.3   110  ASN110     -0.1225
    104  CA        -7.3210   16.9590  -15.9090 C.3   110  ASN110      0.1785
    105  C         -8.8440   16.7750  -15.9770 C.2   110  ASN110      0.2597
    106  O         -9.3890   15.8280  -15.4190 O.2   110  ASN110     -0.2718
    107  CB        -6.6660   16.6760  -17.2720 C.3   110  ASN110      0.1169
    108  CG        -7.0660   17.6680  -18.3550 C.2   110  ASN110      0.2627
    109  OD1       -7.2600   17.2890  -19.5130 O.2   110  ASN110     -0.2716
    110  ND2       -7.1710   18.9320  -17.9960 N.am  110  ASN110     -0.0877
    111  N         -9.5110   17.6980  -16.6690 N.am  111  LYS111     -0.1980
    112  CA       -10.9580   17.6620  -16.9120 C.3   111  LYS111      0.1596
    113  C        -11.7670   17.8530  -15.6220 C.2   111  LYS111      0.2287
    114  O        -12.8500   17.2840  -15.4600 O.2   111  LYS111     -0.2864
    115  CB       -11.3740   16.3930  -17.6830 C.3   111  LYS111      0.0298
    116  CG       -10.5610   16.1370  -18.9570 C.3   111  LYS111      0.0038
    117  CD       -11.2650   15.1830  -19.9040 C.3   111  LYS111      0.0206
    118  CE       -10.3470   14.7780  -21.0520 C.3   111  LYS111      0.1093
    119  NZ       -10.9990   13.8000  -21.9760 N.3   111  LYS111     -0.1314
    120  N        -13.3760   20.3380  -14.7890 N.3   113  ASP113     -0.1225
    121  CA       -14.6110   21.0390  -15.1440 C.3   113  ASP113      0.1805
    122  C        -15.8110   20.0980  -15.3020 C.2   113  ASP113      0.2597
    123  O        -16.9650   20.5450  -15.2570 O.2   113  ASP113     -0.2718
    124  CB       -14.4100   21.8400  -16.4320 C.3   113  ASP113      0.1424
    125  CG       -14.0100   20.9610  -17.6110 C.2   113  ASP113      0.3668
    126  OD1      -12.8660   20.4650  -17.6180 O.co2 113  ASP113     -0.2456
    127  OD2      -14.8330   20.7780  -18.5310 O.co2 113  ASP113     -0.2456
    128  N        -15.5350   18.8070  -15.4870 N.am  114  LEU114     -0.1979
    129  CA       -16.5710   17.7970  -15.7320 C.3   114  LEU114      0.1596
    130  C        -17.2370   17.2660  -14.4610 C.2   114  LEU114      0.2287
    131  O        -16.6470   17.2940  -13.3800 O.2   114  LEU114     -0.2864
    132  CB       -16.0080   16.6430  -16.5680 C.3   114  LEU114      0.0297
    133  CG       -15.5390   17.0060  -17.9840 C.3   114  LEU114      0.0022
    134  CD1      -14.9710   15.8010  -18.7180 C.3   114  LEU114      0.0001
    135  CD2      -16.6640   17.6390  -18.7850 C.3   114  LEU114      0.0001
    136  N         -8.0130   22.0210  -15.6590 N.3   143  SER143     -0.1202
    137  CA        -8.8280   21.8770  -16.8560 C.3   143  SER143      0.2020
    138  C         -8.0220   22.4750  -17.9970 C.2   143  SER143      0.2619
    139  O         -7.7950   23.6820  -18.0430 O.2   143  SER143     -0.2717
    140  CB       -10.1860   22.5730  -16.7080 C.3   143  SER143      0.2103
    141  OG       -10.8810   22.6180  -17.9520 O.3   143  SER143     -0.2182
    142  N         -7.5510   21.6090  -18.8910 N.am  144  ALA144     -0.1965
    143  CA        -6.7720   22.0300  -20.0480 C.3   144  ALA144      0.1728
    144  C         -7.6200   22.8950  -20.9650 C.2   144  ALA144      0.2616
    145  O         -7.0920   23.7130  -21.7080 O.2   144  ALA144     -0.2715
    146  CB        -6.2320   20.8190  -20.8030 C.3   144  ALA144      0.0334
    147  N         -8.9350   22.7080  -20.8810 N.am  145  LEU145     -0.1977
    148  CA        -9.8950   23.4320  -21.7000 C.3   145  LEU145      0.1596
    149  C        -10.0010   24.9070  -21.3060 C.2   145  LEU145      0.2287
    150  O         -9.9560   25.7890  -22.1650 O.2   145  LEU145     -0.2864
    151  CB       -11.2640   22.7480  -21.6250 C.3   145  LEU145      0.0297
    152  CG       -12.2470   22.9530  -22.7820 C.3   145  LEU145      0.0022
    153  CD1      -11.6790   22.4260  -24.0970 C.3   145  LEU145      0.0001
    154  CD2      -13.5700   22.2800  -22.4450 C.3   145  LEU145      0.0001
@<TRIPOS>BOND
     1    70    69    1
     2    71    69    1
     3    69    66    1
     4    75    74    2
     5    66    65    1
     6    66    67    1
     7    78    72    1
     8    78    77    1
     9    65    59   am
    10    67    72   am
    11    67    68    2
    12    81    80    1
    13    81    82    2
    14    72    73    1
    15    74    73    1
    16    74    79   am
    17    77    76    1
    18    59    60    2
    19    59    58    1
    20    80    79    1
    21    80    83    1
    22    76    73    1
    23    57    58    1
    24    58    61    1
    25    85    83    1
    26    83    84    1
    27    61    63    1
    28    61    62    1
    29    64    62    1
    30   102   100   am
    31   100   101    2
    32   100    99    1
    33    99    98    1
    34    41    39    1
    35    98    95    1
    36    87    86    1
    37    87    88    1
    38    49    50    1
    39    40    39    1
    40    39    36    1
    41    51    52    2
    42    51    50    1
    43    88    89    2
    44    88    90   am
    45    50    53    1
    46    95    94    1
    47    95    96    1
    48    94    92   am
    49    97    96    2
    50    90    91    1
    51    38    37    2
    52    36    37    1
    53    36    35    1
    54    37    42   am
    55    53    55    1
    56    53    54    1
    57     8     6   ar
    58     5     6    1
    59     5     2    1
    60    92    91    1
    61    92    93    2
    62    42    43    1
    63    47    46    1
    64    35    28   am
    65    15    14    2
    66     6     7   ar
    67    43    46    1
    68    43    44    1
    69    54    56    1
    70     2     3    1
    71     2     1    1
    72     9    10    1
    73     9     3   am
    74    46    48    1
    75    14    13    1
    76    14    16   am
    77    13    10    1
    78    10    11    1
    79    45    44    2
    80    28    29    2
    81    28    27    1
    82    33    34    1
    83    33    32    1
    84     3     4    2
    85   153   152    1
    86    30    27    1
    87    30    31    1
    88    27    26    1
    89    26    24   am
    90    11    12    2
    91    11    17   am
    92    32    31    1
    93    24    25    2
    94    24    23    1
    95   152   154    1
    96   152   151    1
    97    23    22    1
    98    17    18    1
    99    22    19   am
   100   150   149    2
   101   119   118    1
   102   145   144    2
   103   148   151    1
   104   148   149    1
   105   148   147    1
   106    19    18    1
   107    19    20    2
   108    18    21    1
   109   118   117    1
   110   144   147   am
   111   144   143    1
   112   146   143    1
   113   143   142    1
   114   117   116    1
   115   109   108    2
   116   116   115    1
   117   142   138   am
   118   135   133    1
   119   134   133    1
   120   127   125   ar
   121   108   110   am
   122   108   107    1
   123   139   138    2
   124   138   137    1
   125   133   132    1
   126   141   140    1
   127   115   112    1
   128   126   125   ar
   129   125   124    1
   130   107   104    1
   131   112   111    1
   132   112   113    1
   133   137   140    1
   134   137   136    1
   135   111   105   am
   136   132   129    1
   137   124   121    1
   138   105   104    1
   139   105   106    2
   140   104   103    1
   141   129   128    1
   142   129   130    1
   143   113   114    2
   144   128   122   am
   145   122   123    2
   146   122   121    1
   147   121   120    1
   148   130   131    2
