@<TRIPOS>MOLECULE
tmp/3bhdA00.pdb
 136 129 0 0 0
SMALL
GASTEIGER

@<TRIPOS>ATOM
      1  N          1.3960    8.2360    7.4760 N.3     8  GLU8       -0.1245
      2  CA         0.8000    7.2110    8.3250 C.3     8  GLU8        0.1567
      3  C         -0.6810    7.0600    8.1270 C.2     8  GLU8        0.2260
      4  O         -1.3510    7.9360    7.5760 O.2     8  GLU8       -0.2867
      5  CB         1.0490    7.5390    9.7740 C.3     8  GLU8        0.0388
      6  CG         0.3020    8.7930   10.2080 C.3     8  GLU8        0.1160
      7  CD         0.1410    8.9520   11.6990 C.2     8  GLU8        0.3649
      8  OE1       -0.0910    7.9440   12.4240 O.co2   8  GLU8       -0.2457
      9  OE2        0.2000   10.1250   12.1390 O.co2   8  GLU8       -0.2457
     10  N         -3.5990    5.4400   10.8480 N.3    10  LYS10      -0.1245
     11  CA        -3.9230    4.7430   12.0850 C.3    10  LYS10       0.1561
     12  C         -5.1080    3.8440   11.8600 C.2    10  LYS10       0.2260
     13  O         -5.9650    4.1020   11.0250 O.2    10  LYS10      -0.2867
     14  CB        -4.2820    5.7420   13.1840 C.3    10  LYS10       0.0271
     15  CG        -3.1130    6.6310   13.5430 C.3    10  LYS10       0.0035
     16  CD        -3.3870    7.3640   14.8530 C.3    10  LYS10       0.0206
     17  CE        -2.3300    8.3940   15.1190 C.3    10  LYS10       0.1093
     18  NZ        -0.9290    7.8960   14.9410 N.3    10  LYS10      -0.1314
     19  N          5.9100    8.4840   27.4820 N.3    36  ASP36      -0.1239
     20  CA         5.9110    9.7960   26.8270 C.3    36  ASP36       0.1674
     21  C          5.2160   10.8020   27.7010 C.2    36  ASP36       0.2266
     22  O          4.1480   10.4910   28.2340 O.2    36  ASP36      -0.2867
     23  CB         5.1980    9.7730   25.4480 C.3    36  ASP36       0.1410
     24  CG         6.0340    9.1150   24.3580 C.2    36  ASP36       0.3668
     25  OD1        7.2600    9.0390   24.5230 O.co2  36  ASP36      -0.2456
     26  OD2        5.4820    8.7050   23.3190 O.co2  36  ASP36      -0.2456
     27  N          3.6030   14.6150   27.2450 N.3    38  TYR38      -0.1241
     28  CA         3.2340   15.5850   26.2220 C.3    38  TYR38       0.1605
     29  C          2.9900   16.9530   26.8400 C.2    38  TYR38       0.2264
     30  O          2.5660   17.0510   28.0190 O.2    38  TYR38      -0.2867
     31  CB         1.9450   15.1380   25.5700 C.3    38  TYR38       0.0534
     32  CG         2.0790   13.9630   24.6420 C.ar   38  TYR38      -0.0201
     33  CD1        2.1920   14.1710   23.2590 C.ar   38  TYR38      -0.0009
     34  CD2        2.0130   12.6600   25.1170 C.ar   38  TYR38      -0.0009
     35  CE1        2.2890   13.0820   22.3810 C.ar   38  TYR38       0.0417
     36  CE2        2.0910   11.5660   24.2400 C.ar   38  TYR38       0.0417
     37  CZ         2.2060   11.8020   22.8980 C.ar   38  TYR38       0.1957
     38  OH         2.2650   10.7280   22.0300 O.3    38  TYR38      -0.2866
     39  N          2.4590   18.1750   17.9420 N.3    51  TRP51      -0.1241
     40  CA         2.4970   17.2110   19.0670 C.3    51  TRP51       0.1605
     41  C          3.9190   17.2610   19.6250 C.2    51  TRP51       0.2264
     42  O          4.8570   16.8750   18.9460 O.2    51  TRP51      -0.2867
     43  CB         2.1630   15.7920   18.5690 C.3    51  TRP51       0.0550
     44  CG         0.8840   15.8040   17.7430 C.ar   51  TRP51       0.0003
     45  CD1        0.7570   16.2520   16.4460 C.ar   51  TRP51       0.0946
     46  CD2       -0.4190   15.3920   18.1470 C.ar   51  TRP51       0.0152
     47  NE1       -0.5470   16.1630   16.0330 N.ar   51  TRP51      -0.2442
     48  CE2       -1.2900   15.6340   17.0550 C.ar   51  TRP51       0.0810
     49  CE3       -0.9440   14.8450   19.3230 C.ar   51  TRP51       0.0012
     50  CZ2       -2.6380   15.3440   17.1000 C.ar   51  TRP51       0.0191
     51  CZ3       -2.3040   14.5510   19.3640 C.ar   51  TRP51       0.0001
     52  CH2       -3.1280   14.8100   18.2660 C.ar   51  TRP51       0.0015
     53  N          6.4270   16.0040   22.6700 N.3    53  ARG53      -0.1245
     54  CA         6.5830   15.0340   23.7500 C.3    53  ARG53       0.1563
     55  C          8.0410   14.7890   24.0950 C.2    53  ARG53       0.2260
     56  O          8.9320   14.9220   23.2620 O.2    53  ARG53      -0.2867
     57  CB         5.8040   13.7260   23.5010 C.3    53  ARG53       0.0307
     58  CG         6.5420   12.6190   22.8420 C.3    53  ARG53       0.0489
     59  CD         6.9850   12.8660   21.4790 C.3    53  ARG53       0.2205
     60  NE         7.6710   11.6770   20.8830 N.pl3  53  ARG53      -0.0865
     61  CZ         8.9310   11.2970   21.0780 C.cat  53  ARG53       0.5346
     62  NH1        9.7550   11.9470   21.9080 N.pl3  53  ARG53       0.1354
     63  NH2        9.3950   10.2510   20.4000 N.pl3  53  ARG53       0.1354
     64  N         10.2140   11.6940   25.4870 N.3    55  ARG55      -0.1245
     65  CA        10.1940   10.2460   25.7150 C.3    55  ARG55       0.1563
     66  C         11.3060    9.8910   26.6990 C.2    55  ARG55       0.2260
     67  O         12.4650   10.2510   26.4770 O.2    55  ARG55      -0.2867
     68  CB        10.3670    9.5100   24.4080 C.3    55  ARG55       0.0307
     69  CG        10.3590    7.9480   24.5740 C.3    55  ARG55       0.0489
     70  CD        10.1340    7.2690   23.2320 C.3    55  ARG55       0.2205
     71  NE         8.8000    7.6060   22.7210 N.pl3  55  ARG55      -0.0865
     72  CZ         8.3080    7.2730   21.5300 C.cat  55  ARG55       0.5346
     73  NH1        9.0410    6.5520   20.6850 N.pl3  55  ARG55       0.1354
     74  NH2        7.0780    7.6410   21.1940 N.pl3  55  ARG55       0.1354
     75  N          6.2770   16.6490   16.4570 N.3    63  LYS63      -0.1245
     76  CA         5.6840   16.3420   15.1550 C.3    63  LYS63       0.1561
     77  C          4.9070   17.5480   14.6750 C.2    63  LYS63       0.2260
     78  O          4.1000   18.0920   15.3920 O.2    63  LYS63      -0.2867
     79  CB         4.7700   15.1060   15.2510 C.3    63  LYS63       0.0271
     80  CG         5.6060   13.8530   15.5070 C.3    63  LYS63       0.0035
     81  CD         4.7420   12.6230   15.3850 C.3    63  LYS63       0.0206
     82  CE         5.4740   11.4140   15.8360 C.3    63  LYS63       0.1093
     83  NZ         4.6900   10.2110   15.4430 N.3    63  LYS63      -0.1314
     84  N         -3.2460   13.6540   11.1220 N.3    74  HIS74      -0.1241
     85  CA        -2.9640   12.2610   11.4110 C.3    74  HIS74       0.1621
     86  C         -2.5740   11.5100   10.1510 C.2    74  HIS74       0.2264
     87  O         -2.8200   10.3090   10.0580 O.2    74  HIS74      -0.2867
     88  CB        -4.1740   11.5850   12.0940 C.3    74  HIS74       0.0745
     89  CG        -4.8500   12.4490   13.1220 C.ar   74  HIS74       0.0817
     90  ND1       -4.2750   12.7610   14.3340 N.ar   74  HIS74      -0.2268
     91  CD2       -6.0530   13.0730   13.0990 C.ar   74  HIS74       0.1154
     92  CE1       -5.0830   13.5570   15.0120 C.ar   74  HIS74       0.1986
     93  NE2       -6.1740   13.7590   14.2850 N.ar   74  HIS74      -0.2212
     94  N          3.5830   13.9030    9.0530 N.3    77  TYR77      -0.1241
     95  CA         4.3090   14.7500   10.0210 C.3    77  TYR77       0.1605
     96  C          5.7810   14.7590    9.7500 C.2    77  TYR77       0.2264
     97  O          6.4070   13.7130    9.5010 O.2    77  TYR77      -0.2867
     98  CB         4.1100   14.2760   11.4890 C.3    77  TYR77       0.0534
     99  CG         2.6760   14.3490   11.9050 C.ar   77  TYR77      -0.0201
    100  CD1        2.1110   15.5440   12.3360 C.ar   77  TYR77      -0.0009
    101  CD2        1.8660   13.2240   11.8540 C.ar   77  TYR77      -0.0009
    102  CE1        0.7470   15.6440   12.6850 C.ar   77  TYR77       0.0417
    103  CE2        0.5070   13.2960   12.1930 C.ar   77  TYR77       0.0417
    104  CZ        -0.0340   14.5090   12.6370 C.ar   77  TYR77       0.1957
    105  OH        -1.3420   14.6460   12.9540 O.3    77  TYR77      -0.2866
    106  N         -0.6980    1.5270   13.6590 N.3   152  GLU152     -0.1245
    107  CA        -0.2920    2.5280   12.6970 C.3   152  GLU152      0.1567
    108  C          0.5130    1.8850   11.5900 C.2   152  GLU152      0.2260
    109  O          1.4640    1.1740   11.8820 O.2   152  GLU152     -0.2867
    110  CB         0.5290    3.6270   13.3790 C.3   152  GLU152      0.0388
    111  CG         0.9800    4.6970   12.4470 C.3   152  GLU152      0.1160
    112  CD         1.8930    5.6920   13.1290 C.2   152  GLU152      0.3649
    113  OE1        2.8870    6.1050   12.4800 O.co2 152  GLU152     -0.2457
    114  OE2        1.6240    6.0490   14.3040 O.co2 152  GLU152     -0.2457
    115  N         -5.5780    9.2120   18.0110 N.3   186  ALA186     -0.1231
    116  CA        -4.2660    9.1320   18.5850 C.3   186  ALA186      0.1694
    117  C         -4.3490    8.7740   20.0880 C.2   186  ALA186      0.2592
    118  O         -5.2730    9.1720   20.7940 O.2   186  ALA186     -0.2718
    119  CB        -3.6260   10.4250   18.4340 C.3   186  ALA186      0.0304
    120  N         -3.3300    8.1030   20.5880 N.am  187  LYS187     -0.1966
    121  CA        -3.3260    7.7420   22.0150 C.3   187  LYS187      0.1728
    122  C         -3.5290    8.9550   22.9170 C.2   187  LYS187      0.2616
    123  O         -4.2290    8.8710   23.9320 O.2   187  LYS187     -0.2715
    124  CB        -2.0270    7.0500   22.3810 C.3   187  LYS187      0.0311
    125  CG        -1.8120    5.7400   21.6500 C.3   187  LYS187      0.0038
    126  CD        -0.5480    4.9990   22.0600 C.3   187  LYS187      0.0206
    127  CE         0.7630    5.7010   21.6630 C.3   187  LYS187      0.1093
    128  NZ         0.9440    5.6170   20.1770 N.3   187  LYS187     -0.1314
    129  N         -2.8570   10.0660   22.6150 N.am  188  LEU188     -0.1977
    130  CA        -3.0030   11.2490   23.4450 C.3   188  LEU188      0.1596
    131  C         -4.4490   11.7280   23.4910 C.2   188  LEU188      0.2287
    132  O         -4.8910   12.2170   24.5400 O.2   188  LEU188     -0.2864
    133  CB        -2.0620   12.3850   22.9720 C.3   188  LEU188      0.0297
    134  CG        -2.2290   13.7310   23.7020 C.3   188  LEU188      0.0022
    135  CD1       -1.9400   13.6390   25.1880 C.3   188  LEU188      0.0001
    136  CD2       -1.3020   14.7750   23.0620 C.3   188  LEU188      0.0001
@<TRIPOS>BOND
     1     1     2    1
     2     4     3    2
     3     3     2    1
     4     2     5    1
     5    94    95    1
     6    97    96    2
     7    96    95    1
     8     5     6    1
     9    95    98    1
    10    87    86    2
    11    86    85    1
    12     6     7    1
    13    10    11    1
    14    13    12    2
    15    84    85    1
    16    85    88    1
    17    98    99    1
    18   108   109    2
    19   108   107    1
    20     7     9   ar
    21     7     8   ar
    22   101    99   ar
    23   101   103   ar
    24    12    11    1
    25    99   100   ar
    26    11    14    1
    27    88    89    1
    28   103   104   ar
    29   100   102   ar
    30   111   112    1
    31   111   110    1
    32   113   112   ar
    33   104   102   ar
    34   104   105    1
    35   107   110    1
    36   107   106    1
    37    91    89   ar
    38    91    93   ar
    39    89    90   ar
    40   112   114   ar
    41    14    15    1
    42    15    16    1
    43    93    92   ar
    44    90    92   ar
    45    77    76    1
    46    77    78    2
    47    16    17    1
    48    18    17    1
    49    76    79    1
    50    76    75    1
    51    79    80    1
    52    81    80    1
    53    81    82    1
    54    83    82    1
    55    47    45   ar
    56    47    48   ar
    57    45    44   ar
    58    48    50   ar
    59    48    46   ar
    60    50    52   ar
    61    44    46   ar
    62    44    43    1
    63    39    40    1
    64   115   116    1
    65    46    49   ar
    66    52    51   ar
    67   119   116    1
    68    43    40    1
    69   116   117    1
    70    42    41    2
    71    40    41    1
    72    49    51   ar
    73   117   120   am
    74   117   118    2
    75   128   127    1
    76    63    61    1
    77   120   121    1
    78    73    72    1
    79    60    61    2
    80    60    59    1
    81    61    62    1
    82    74    72    1
    83    59    58    1
    84    72    71    2
    85   125   126    1
    86   125   124    1
    87   127   126    1
    88   121   124    1
    89   121   122    1
    90    38    37    1
    91    35    37   ar
    92    35    33   ar
    93   129   122   am
    94   129   130    1
    95    53    54    1
    96    71    70    1
    97    58    57    1
    98    37    36   ar
    99   122   123    2
   100   133   130    1
   101   133   134    1
   102   136   134    1
   103    70    69    1
   104    33    32   ar
   105    56    55    2
   106    26    24   ar
   107   130   131    1
   108   131   132    2
   109    57    54    1
   110   134   135    1
   111    54    55    1
   112    36    34   ar
   113    24    25   ar
   114    24    23    1
   115    68    69    1
   116    68    65    1
   117    32    34   ar
   118    32    31    1
   119    23    20    1
   120    64    65    1
   121    31    28    1
   122    65    66    1
   123    28    29    1
   124    28    27    1
   125    67    66    2
   126    20    19    1
   127    20    21    1
   128    29    30    2
   129    21    22    2
