@<TRIPOS>MOLECULE
tmp/3bheB00.pdb
 91 82 0 0 0
SMALL
GASTEIGER

@<TRIPOS>ATOM
      1  N         12.6290    6.1370   14.1870 N.3    23  LEU23      -0.1245
      2  CA        14.0170    6.2100   13.7410 C.3    23  LEU23       0.1561
      3  C         14.1930    5.5460   12.3800 C.2    23  LEU23       0.2260
      4  O         13.9010    4.3530   12.2600 O.2    23  LEU23      -0.2867
      5  CB        14.8960    5.4740   14.7430 C.3    23  LEU23       0.0270
      6  CG        16.4070    5.6610   14.6730 C.3    23  LEU23       0.0019
      7  CD1       16.8140    7.0360   15.1690 C.3    23  LEU23       0.0001
      8  CD2       17.1100    4.5880   15.5000 C.3    23  LEU23       0.0001
      9  N         16.2410    3.6520   10.2030 N.3    25  ASP25      -0.1239
     10  CA        17.4300    2.8820   10.5900 C.3    25  ASP25       0.1674
     11  C         17.9470    1.9410    9.5140 C.2    25  ASP25       0.2266
     12  O         17.3820    0.8670    9.2750 O.2    25  ASP25      -0.2867
     13  CB        17.0380    2.1210   11.8640 C.3    25  ASP25       0.1410
     14  CG        18.1550    1.3380   12.5020 C.2    25  ASP25       0.3668
     15  OD1       19.1960    1.0910   11.8600 O.co2  25  ASP25      -0.2456
     16  OD2       17.9770    0.9540   13.6860 O.co2  25  ASP25      -0.2456
     17  N         20.5160    0.0810    9.4920 N.3    27  GLY27      -0.1210
     18  CA        21.1190   -1.1070   10.0640 C.3    27  GLY27       0.1956
     19  C         20.0820   -2.1540   10.3970 C.2    27  GLY27       0.2612
     20  O         20.4110   -3.2790   10.7380 O.2    27  GLY27      -0.2717
     21  N         18.7990   -1.8060   10.3110 N.am   28  ALA28      -0.1965
     22  CA        17.7490   -2.7410   10.6940 C.3    28  ALA28       0.1728
     23  C         17.1180   -3.3580    9.4550 C.2    28  ALA28       0.2616
     24  O         16.6290   -2.6180    8.5970 O.2    28  ALA28      -0.2715
     25  CB        16.6870   -2.0370   11.5220 C.3    28  ALA28       0.0334
     26  N         17.1440   -4.6910    9.4080 N.am   29  ASP29      -0.1971
     27  CA        16.4890   -5.4080    8.3270 C.3    29  ASP29       0.1709
     28  C         14.9770   -5.1830    8.3580 C.2    29  ASP29       0.2293
     29  O         14.3220   -5.0110    7.3360 O.2    29  ASP29      -0.2864
     30  CB        16.7360   -6.9050    8.4130 C.3    29  ASP29       0.1436
     31  CG        18.1870   -7.3240    8.2700 C.2    29  ASP29       0.3671
     32  OD1       19.0350   -6.5790    7.7270 O.co2  29  ASP29      -0.2456
     33  OD2       18.5250   -8.4390    8.7150 O.co2  29  ASP29      -0.2456
     34  N         10.6530   -2.2560   13.6190 N.3    32  VAL32      -0.1245
     35  CA        10.2810   -2.6530   14.9720 C.3    32  VAL32       0.1561
     36  C          9.4840   -1.5590   15.6500 C.2    32  VAL32       0.2260
     37  O          9.9750   -0.4490   15.8100 O.2    32  VAL32      -0.2867
     38  CB        11.5410   -2.9740   15.7950 C.3    32  VAL32       0.0252
     39  CG1       11.1640   -3.5930   17.1290 C.3    32  VAL32       0.0019
     40  CG2       12.4450   -3.9030   14.9950 C.3    32  VAL32       0.0019
     41  N         14.2680  -11.2160   17.9450 N.3    47  ILE47      -0.1231
     42  CA        15.2020  -10.3560   17.2340 C.3    47  ILE47       0.1692
     43  C         16.2440   -9.8250   18.2220 C.2    47  ILE47       0.2593
     44  O         15.8890   -9.5140   19.3450 O.2    47  ILE47      -0.2718
     45  CB        14.5200   -9.1740   16.5450 C.3    47  ILE47       0.0266
     46  CG1       13.7900   -8.2490   17.5130 C.3    47  ILE47       0.0019
     47  CG2       13.5810   -9.6640   15.4460 C.3    47  ILE47       0.0020
     48  CD1       13.2150   -7.0200   16.8430 C.3    47  ILE47       0.0001
     49  N         17.4720   -9.7690   17.7400 N.am   48  GLY48      -0.1942
     50  CA        18.6110   -9.4720   18.5700 C.3    48  GLY48       0.2014
     51  C         19.5850   -8.4520   18.0120 C.2    48  GLY48       0.2639
     52  O         19.5620   -8.0180   16.8700 O.2    48  GLY48      -0.2714
     53  N         20.4840   -8.0750   18.9020 N.am   49  GLY49      -0.1939
     54  CA        21.6060   -7.2160   18.6300 C.3    49  GLY49       0.2014
     55  C         22.5590   -7.2560   19.8250 C.2    49  GLY49       0.2638
     56  O         22.4740   -8.1500   20.6670 O.2    49  GLY49      -0.2714
     57  N         23.4150   -6.2500   19.8110 N.am   50  ILE50      -0.1977
     58  CA        24.3240   -5.9370   20.8960 C.3    50  ILE50       0.1596
     59  C         23.5240   -6.0580   22.1780 C.2    50  ILE50       0.2287
     60  O         22.5390   -5.3490   22.3740 O.2    50  ILE50      -0.2864
     61  CB        24.9070   -4.5290   20.6880 C.3    50  ILE50       0.0276
     62  CG1       25.8090   -4.4390   19.4540 C.3    50  ILE50       0.0022
     63  CG2       25.6280   -4.0250   21.9240 C.3    50  ILE50       0.0022
     64  CD1       25.9850   -3.0460   18.9010 C.3    50  ILE50       0.0001
     65  N         21.7390   -8.7710   23.1170 N.3    52  GLY52      -0.1225
     66  CA        20.8880   -9.9520   23.1320 C.3    52  GLY52       0.1811
     67  C         19.5960   -9.7440   22.3680 C.2    52  GLY52       0.2280
     68  O         19.5470   -8.9610   21.4220 O.2    52  GLY52      -0.2866
     69  N         15.1240   -9.7190   22.0240 N.3    54  ILE54      -0.1245
     70  CA        13.7910   -9.5050   22.5730 C.3    54  ILE54       0.1561
     71  C         12.7750  -10.3280   21.7710 C.2    54  ILE54       0.2260
     72  O         13.0190  -10.5710   20.5830 O.2    54  ILE54      -0.2867
     73  CB        13.3250   -8.0460   22.5580 C.3    54  ILE54       0.0252
     74  CG1       13.2770   -7.3940   21.1760 C.3    54  ILE54       0.0019
     75  CG2       14.1840   -7.2160   23.5000 C.3    54  ILE54       0.0019
     76  CD1       12.4760   -6.1010   21.1530 C.3    54  ILE54       0.0001
     77  N         10.5440   -2.2050   22.6260 N.3    80  THR80      -0.1218
     78  CA        11.6190   -1.3180   22.1850 C.3    80  THR80       0.1862
     79  C         11.3030    0.0710   22.7230 C.2    80  THR80       0.2287
     80  O         10.1250    0.4430   22.7840 O.2    80  THR80      -0.2866
     81  CB        11.7710   -1.2880   20.6550 C.3    80  THR80       0.1770
     82  OG1       12.6350   -0.2080   20.2580 O.3    80  THR80      -0.2211
     83  CG2       10.4370   -1.0220   19.9630 C.3    80  THR80       0.0375
     84  N         11.3670    1.9330   15.1590 N.3    84  ILE84      -0.1245
     85  CA        12.4700    1.7650   14.2280 C.3    84  ILE84       0.1561
     86  C         11.9420    1.4090   12.8380 C.2    84  ILE84       0.2260
     87  O         11.3150    0.3520   12.6950 O.2    84  ILE84      -0.2867
     88  CB        13.4190    0.6470   14.6920 C.3    84  ILE84       0.0252
     89  CG1       14.1950    0.9470   15.9790 C.3    84  ILE84       0.0019
     90  CG2       14.4090    0.2910   13.5950 C.3    84  ILE84       0.0019
     91  CD1       14.7140   -0.3180   16.6330 C.3    84  ILE84       0.0001
@<TRIPOS>BOND
     1    29    28    2
     2    32    31   ar
     3    31    30    1
     4    31    33   ar
     5    27    28    1
     6    27    30    1
     7    27    26    1
     8    24    23    2
     9    12    11    2
    10    26    23   am
    11    23    22    1
    12    17    18    1
    13    11    10    1
    14    18    19    1
    15     9    10    1
    16    21    19   am
    17    21    22    1
    18    19    20    2
    19    10    13    1
    20    22    25    1
    21    15    14   ar
    22    13    14    1
    23     4     3    2
    24     3     2    1
    25    14    16   ar
    26    87    86    2
    27    86    85    1
    28    90    88    1
    29    34    35    1
    30     2     1    1
    31     2     5    1
    32    85    88    1
    33    85    84    1
    34     6     5    1
    35     6     7    1
    36     6     8    1
    37    88    89    1
    38    35    36    1
    39    35    38    1
    40    40    38    1
    41    47    45    1
    42    36    37    2
    43    38    39    1
    44    89    91    1
    45    45    42    1
    46    45    46    1
    47    48    46    1
    48    52    51    2
    49    42    41    1
    50    42    43    1
    51    49    43   am
    52    49    50    1
    53    51    50    1
    54    51    53   am
    55    43    44    2
    56    54    53    1
    57    54    55    1
    58    64    62    1
    59    62    61    1
    60    57    55   am
    61    57    58    1
    62    55    56    2
    63    83    81    1
    64    82    81    1
    65    72    71    2
    66    81    78    1
    67    61    58    1
    68    61    63    1
    69    58    59    1
    70    76    74    1
    71    74    73    1
    72    68    67    2
    73    71    70    1
    74    69    70    1
    75    59    60    2
    76    78    77    1
    77    78    79    1
    78    67    66    1
    79    73    70    1
    80    73    75    1
    81    79    80    2
    82    65    66    1
