@<TRIPOS>MOLECULE
tmp/3bhhA00.pdb
 161 151 0 0 0
SMALL
GASTEIGER

@<TRIPOS>ATOM
      1  N         17.7310   67.1530   38.0880 N.3    12  ILE12      -0.1231
      2  CA        17.7480   67.2250   36.5940 C.3    12  ILE12       0.1692
      3  C         17.3920   65.8580   35.9150 C.2    12  ILE12       0.2592
      4  O         17.3750   64.8030   36.5610 O.2    12  ILE12      -0.2718
      5  CB        19.1650   67.7190   36.0900 C.3    12  ILE12       0.0266
      6  CG1       19.4810   69.1260   36.6370 C.3    12  ILE12       0.0019
      7  CG2       19.2920   67.6580   34.5790 C.3    12  ILE12       0.0020
      8  CD1       18.6330   70.2130   35.9950 C.3    12  ILE12       0.0001
      9  N         17.1050   65.8740   34.6120 N.am   13  GLY13      -0.1957
     10  CA        16.6570   64.6470   33.9000 C.3    13  GLY13       0.1869
     11  C         15.4420   63.9340   34.5060 C.2    13  GLY13       0.2309
     12  O         15.5160   62.7760   34.9550 O.2    13  GLY13      -0.2863
     13  N         20.6920   63.7510   40.3580 N.3    16  VAL16      -0.1245
     14  CA        21.4900   64.6670   39.5270 C.3    16  VAL16       0.1561
     15  C         20.8550   66.0200   39.6780 C.2    16  VAL16       0.2260
     16  O         19.7140   66.1930   39.3050 O.2    16  VAL16      -0.2867
     17  CB        21.5480   64.2300   38.0610 C.3    16  VAL16       0.0252
     18  CG1       22.4250   65.1820   37.2230 C.3    16  VAL16       0.0019
     19  CG2       22.0770   62.8440   38.0170 C.3    16  VAL16       0.0019
     20  N         25.8780   70.3080   36.1470 N.3    29  ALA29      -0.1245
     21  CA        25.0330   69.2100   36.4950 C.3    29  ALA29       0.1562
     22  C         25.8220   68.2620   37.4010 C.2    29  ALA29       0.2260
     23  O         26.7800   67.6750   36.9690 O.2    29  ALA29      -0.2867
     24  CB        24.5880   68.5300   35.2250 C.3    29  ALA29       0.0290
     25  N         26.1500   64.8550   39.6240 N.3    31  LYS31      -0.1245
     26  CA        25.6810   63.5160   40.0070 C.3    31  LYS31       0.1561
     27  C         26.1400   63.2630   41.4150 C.2    31  LYS31       0.2260
     28  O         27.3110   63.2430   41.6570 O.2    31  LYS31      -0.2867
     29  CB        26.2790   62.4670   39.0790 C.3    31  LYS31       0.0271
     30  CG        25.5920   61.1190   39.0940 C.3    31  LYS31       0.0035
     31  CD        25.8810   60.2850   37.8580 C.3    31  LYS31       0.0206
     32  CE        25.6930   58.8050   38.1890 C.3    31  LYS31       0.1093
     33  NZ        26.3700   58.3990   39.4550 N.3    31  LYS31      -0.1314
     34  N         33.5620   54.8300   36.6920 N.3    49  GLU49      -0.1245
     35  CA        32.7580   55.8040   35.9730 C.3    49  GLU49       0.1567
     36  C         33.4370   57.1550   35.8950 C.2    49  GLU49       0.2260
     37  O         33.3490   57.8180   34.8540 O.2    49  GLU49      -0.2867
     38  CB        31.3930   55.9890   36.6140 C.3    49  GLU49       0.0388
     39  CG        30.5560   57.1040   35.9590 C.3    49  GLU49       0.1160
     40  CD        29.2620   57.3640   36.6820 C.2    49  GLU49       0.3649
     41  OE1       28.9990   56.6310   37.6540 O.co2  49  GLU49      -0.2457
     42  OE2       28.5080   58.3050   36.2790 O.co2  49  GLU49      -0.2457
     43  N         28.6860   64.5270   26.8770 N.3    62  VAL62      -0.1245
     44  CA        28.6130   65.5290   27.9670 C.3    62  VAL62       0.1561
     45  C         29.9010   65.4420   28.7400 C.2    62  VAL62       0.2260
     46  O         30.2860   64.3490   29.1480 O.2    62  VAL62      -0.2867
     47  CB        27.4540   65.2790   28.9390 C.3    62  VAL62       0.0252
     48  CG1       27.4050   66.3630   30.0330 C.3    62  VAL62       0.0019
     49  CG2       26.1490   65.2650   28.1710 C.3    62  VAL62       0.0019
     50  N         29.3350   67.7550   35.8780 N.3    78  PHE78      -0.1227
     51  CA        29.3720   67.8180   34.4090 C.3    78  PHE78       0.1736
     52  C         28.9090   69.1590   33.9300 C.2    78  PHE78       0.2595
     53  O         28.1180   69.8260   34.5940 O.2    78  PHE78      -0.2718
     54  CB        28.4240   66.7760   33.7920 C.3    78  PHE78       0.0547
     55  CG        28.7220   65.3690   34.1750 C.ar   78  PHE78      -0.0202
     56  CD1       28.1760   64.8150   35.3370 C.ar   78  PHE78      -0.0042
     57  CD2       29.5140   64.5650   33.3430 C.ar   78  PHE78      -0.0042
     58  CE1       28.4570   63.4970   35.6810 C.ar   78  PHE78      -0.0003
     59  CE2       29.8050   63.2630   33.6840 C.ar   78  PHE78      -0.0003
     60  CZ        29.2930   62.7240   34.8450 C.ar   78  PHE78      -0.0000
     61  N         29.3490   69.5410   32.7470 N.am   79  ASP79      -0.1960
     62  CA        28.7790   70.6850   32.0320 C.3    79  ASP79       0.1840
     63  C         27.2580   70.5560   31.8760 C.2    79  ASP79       0.2622
     64  O         26.7680   69.4880   31.5670 O.2    79  ASP79      -0.2715
     65  CB        29.4240   70.8170   30.6390 C.3    79  ASP79       0.1450
     66  CG        30.8580   71.3640   30.6940 C.2    79  ASP79       0.3671
     67  OD1       31.2670   71.9350   31.7000 O.co2  79  ASP79      -0.2456
     68  OD2       31.5900   71.2670   29.7140 O.co2  79  ASP79      -0.2456
     69  N         26.5180   71.6480   32.1250 N.am   80  LEU80      -0.1963
     70  CA        25.0870   71.6810   31.8920 C.3    80  LEU80       0.1728
     71  C         24.8540   71.9010   30.4110 C.2    80  LEU80       0.2616
     72  O         25.4960   72.7790   29.7960 O.2    80  LEU80      -0.2715
     73  CB        24.3980   72.7640   32.6820 C.3    80  LEU80       0.0311
     74  CG        22.8740   72.6230   32.8180 C.3    80  LEU80       0.0022
     75  CD1       22.5260   71.3680   33.5330 C.3    80  LEU80       0.0001
     76  CD2       22.2840   73.8320   33.5240 C.3    80  LEU80       0.0001
     77  N         23.9540   71.0690   29.8570 N.am   81  VAL81      -0.1963
     78  CA        23.4870   71.1240   28.4960 C.3    81  VAL81       0.1727
     79  C         22.0000   71.3620   28.7090 C.2    81  VAL81       0.2616
     80  O         21.3970   70.8560   29.6580 O.2    81  VAL81      -0.2715
     81  CB        23.8310   69.8580   27.6730 C.3    81  VAL81       0.0290
     82  CG1       25.3130   69.7570   27.4780 C.3    81  VAL81       0.0023
     83  CG2       23.2350   68.6020   28.2910 C.3    81  VAL81       0.0023
     84  N         21.4240   72.2250   27.8890 N.am   82  THR82      -0.1951
     85  CA        20.1840   72.8890   28.2960 C.3    82  THR82       0.1897
     86  C         19.0580   72.7350   27.2870 C.2    82  THR82       0.2313
     87  O         17.9600   73.2480   27.5230 O.2    82  THR82      -0.2863
     88  CB        20.4620   74.3670   28.5270 C.3    82  THR82       0.1794
     89  OG1       21.1310   74.8720   27.3600 O.3    82  THR82      -0.2208
     90  CG2       21.3420   74.5460   29.7650 C.3    82  THR82       0.0378
     91  N         17.5430   69.8600   26.4540 N.3    84  GLY84      -0.1210
     92  CA        16.6180   68.7730   26.7790 C.3    84  GLY84       0.1956
     93  C         16.8370   67.4780   26.0020 C.2    84  GLY84       0.2611
     94  O         17.8290   67.3060   25.2600 O.2    84  GLY84      -0.2717
     95  N         15.9110   66.5430   26.1620 N.am   85  GLU85      -0.1979
     96  CA        16.0040   65.2970   25.3890 C.3    85  GLU85       0.1602
     97  C         15.7120   65.5360   23.9250 C.2    85  GLU85       0.2287
     98  O         14.8570   66.3420   23.5980 O.2    85  GLU85      -0.2864
     99  CB        15.0540   64.2390   25.9300 C.3    85  GLU85       0.0415
    100  CG        15.3770   63.7600   27.3260 C.3    85  GLU85       0.1163
    101  CD        14.2330   62.9430   27.9290 C.2    85  GLU85       0.3649
    102  OE1       13.3470   62.5110   27.1420 O.co2  85  GLU85      -0.2457
    103  OE2       14.2000   62.7140   29.1690 O.co2  85  GLU85      -0.2457
    104  N         16.5580   58.8650   26.7220 N.3   128  GLU128     -0.1231
    105  CA        16.7260   59.7670   27.8710 C.3   128  GLU128      0.1699
    106  C         18.1750   60.2180   28.0740 C.2   128  GLU128      0.2592
    107  O         18.4170   61.2170   28.7940 O.2   128  GLU128     -0.2718
    108  CB        16.1660   59.1450   29.1600 C.3   128  GLU128      0.0402
    109  CG        14.6400   59.1230   29.2830 C.3   128  GLU128      0.1161
    110  CD        14.0040   57.9300   28.6700 C.2   128  GLU128      0.3649
    111  OE1       14.7030   57.1330   28.0380 O.co2 128  GLU128     -0.2457
    112  OE2       12.8220   57.7680   28.8290 O.co2 128  GLU128     -0.2457
    113  N         19.1250   59.4890   27.4440 N.am  129  ASN129     -0.1974
    114  CA        20.5380   59.8040   27.4660 C.3   129  ASN129      0.1688
    115  C         21.0160   60.4970   26.2240 C.2   129  ASN129      0.2292
    116  O         22.1980   60.5840   26.0110 O.2   129  ASN129     -0.2864
    117  CB        21.3450   58.5240   27.6180 C.3   129  ASN129      0.1181
    118  CG        21.1170   57.8340   28.9640 C.2   129  ASN129      0.2629
    119  OD1       20.6360   58.4360   29.9430 O.2   129  ASN129     -0.2716
    120  ND2       21.4580   56.5660   29.0050 N.am  129  ASN129     -0.0877
    121  N         20.8090   64.0440   24.6630 N.3   131  LEU131     -0.1245
    122  CA        20.4370   65.4000   25.0670 C.3   131  LEU131      0.1561
    123  C         20.8660   66.3950   24.0120 C.2   131  LEU131      0.2260
    124  O         21.8040   66.1270   23.2770 O.2   131  LEU131     -0.2867
    125  CB        21.0840   65.7470   26.4140 C.3   131  LEU131      0.0270
    126  CG        20.7640   64.8570   27.6140 C.3   131  LEU131      0.0019
    127  CD1       21.5310   65.4090   28.8310 C.3   131  LEU131      0.0001
    128  CD2       19.2390   64.7340   27.9070 C.3   131  LEU131      0.0001
    129  N         18.9080   75.1100   23.3610 N.3   135  LYS135     -0.1245
    130  CA        17.6120   75.2900   22.6790 C.3   135  LYS135      0.1561
    131  C         17.7770   75.9630   21.2910 C.2   135  LYS135      0.2260
    132  O         16.8000   76.1540   20.5750 O.2   135  LYS135     -0.2867
    133  CB        16.6530   76.0940   23.5620 C.3   135  LYS135      0.0271
    134  CG        16.4990   75.2890   24.8590 C.3   135  LYS135      0.0035
    135  CD        15.5280   74.1420   24.6360 C.3   135  LYS135      0.0206
    136  CE        14.6610   74.1180   25.9000 C.3   135  LYS135      0.1093
    137  NZ        14.0700   72.7450   25.8240 N.3   135  LYS135     -0.1314
    138  N         24.8700   61.2180   27.3130 N.3   144  ALA144     -0.1231
    139  CA        24.9350   61.3490   28.7490 C.3   144  ALA144      0.1694
    140  C         24.9320   59.9800   29.4290 C.2   144  ALA144      0.2592
    141  O         24.7200   58.9100   28.8000 O.2   144  ALA144     -0.2718
    142  CB        23.7550   62.1550   29.2290 C.3   144  ALA144      0.0304
    143  N         25.1780   60.0370   30.7340 N.am  145  ASP145     -0.1960
    144  CA        25.0530   58.9180   31.6980 C.3   145  ASP145      0.1840
    145  C         25.8720   57.6520   31.4230 C.2   145  ASP145      0.2622
    146  O         25.3860   56.6820   30.8220 O.2   145  ASP145     -0.2715
    147  CB        23.6100   58.5770   31.9760 C.3   145  ASP145      0.1450
    148  CG        23.4270   57.8140   33.2690 C.2   145  ASP145      0.3671
    149  OD1       24.4330   57.5340   33.9860 O.co2 145  ASP145     -0.2456
    150  OD2       22.2480   57.5000   33.5740 O.co2 145  ASP145     -0.2456
    151  N         27.0990   57.6560   31.9360 N.am  146  PHE146     -0.1974
    152  CA        28.0070   56.5340   31.8440 C.3   146  PHE146      0.1639
    153  C         28.0070   55.7420   33.1480 C.2   146  PHE146      0.2290
    154  O         28.9760   55.0980   33.5010 O.2   146  PHE146     -0.2864
    155  CB        29.4150   57.0130   31.4530 C.3   146  PHE146      0.0560
    156  CG        29.5020   57.4780   30.0040 C.ar  146  PHE146     -0.0200
    157  CD1       28.9170   58.6780   29.5980 C.ar  146  PHE146     -0.0042
    158  CD2       30.1460   56.6900   29.0440 C.ar  146  PHE146     -0.0042
    159  CE1       28.9690   59.0870   28.2800 C.ar  146  PHE146     -0.0003
    160  CE2       30.2020   57.0970   27.7220 C.ar  146  PHE146     -0.0003
    161  CZ        29.6030   58.2940   27.3290 C.ar  146  PHE146     -0.0000
@<TRIPOS>BOND
     1   132   131    2
     2   131   130    1
     3   130   129    1
     4   130   133    1
     5   124   123    2
     6   133   134    1
     7    98    97    2
     8    97    96    1
     9   123   122    1
    10   135   134    1
    11   135   136    1
    12   121   122    1
    13   122   125    1
    14    94    93    2
    15    96    99    1
    16    96    95    1
    17   137   136    1
    18    99   100    1
    19    93    95   am
    20    93    92    1
    21   116   115    2
    22   115   114    1
    23   125   126    1
    24    91    92    1
    25   104   105    1
    26    43    44    1
    27   102   101   ar
    28    86    87    2
    29    86    85    1
    30   138   139    1
    31   100   101    1
    32   161   160   ar
    33   161   159   ar
    34    89    88    1
    35   113   114    1
    36   113   106   am
    37   114   117    1
    38    82    81    1
    39   126   128    1
    40   126   127    1
    41   117   118    1
    42    81    83    1
    43    81    78    1
    44   160   158   ar
    45   105   106    1
    46   105   108    1
    47    84    85    1
    48    84    79   am
    49   101   103   ar
    50    44    45    1
    51    44    47    1
    52   111   110   ar
    53   106   107    2
    54    49    47    1
    55   159   157   ar
    56    85    88    1
    57    78    79    1
    58    78    77    1
    59    88    90    1
    60   110   112   ar
    61   110   109    1
    62    79    80    2
    63    45    46    2
    64   139   142    1
    65   139   140    1
    66   141   140    2
    67    47    48    1
    68   118   120   am
    69   118   119    2
    70   158   156   ar
    71   108   109    1
    72   140   143   am
    73   157   156   ar
    74    68    66   ar
    75    72    71    2
    76    77    71   am
    77   156   155    1
    78    71    70    1
    79    65    66    1
    80    65    62    1
    81    66    67   ar
    82   143   144    1
    83   146   145    2
    84   145   144    1
    85   145   151   am
    86   155   152    1
    87    64    63    2
    88   144   147    1
    89   152   151    1
    90   152   153    1
    91    63    62    1
    92    63    69   am
    93    70    69    1
    94    70    73    1
    95   147   148    1
    96    62    61    1
    97    73    74    1
    98    61    52   am
    99    74    76    1
   100    74    75    1
   101   153   154    2
   102   148   150   ar
   103   148   149   ar
   104    57    59   ar
   105    57    55   ar
   106    59    60   ar
   107    54    55    1
   108    54    51    1
   109    10    11    1
   110    10     9    1
   111    52    51    1
   112    52    53    2
   113    55    56   ar
   114    51    50    1
   115    11    12    2
   116     7     5    1
   117     9     3   am
   118    60    58   ar
   119    37    36    2
   120    24    21    1
   121    56    58   ar
   122    36    35    1
   123     3     4    2
   124     3     2    1
   125    39    38    1
   126    39    40    1
   127    35    38    1
   128    35    34    1
   129     8     6    1
   130     5     2    1
   131     5     6    1
   132    20    21    1
   133    42    40   ar
   134    21    22    1
   135     2     1    1
   136    40    41   ar
   137    23    22    2
   138    18    17    1
   139    31    32    1
   140    31    30    1
   141    19    17    1
   142    17    14    1
   143    32    33    1
   144    29    30    1
   145    29    26    1
   146    16    15    2
   147    14    15    1
   148    14    13    1
   149    25    26    1
   150    26    27    1
   151    27    28    2
