@<TRIPOS>MOLECULE
tmp/3bhjA04.pdb
 93 89 0 0 0
SMALL
GASTEIGER

@<TRIPOS>ATOM
      1  N         19.5960    5.6670   22.4400 N.3   120  CYS120     -0.1221
      2  CA        19.1050    4.3110   22.1650 C.3   120  CYS120      0.1808
      3  C         19.0980    3.4330   23.4070 C.2   120  CYS120      0.2601
      4  O         18.1760    2.6540   23.6050 O.2   120  CYS120     -0.2717
      5  CB        19.9030    3.6570   21.0460 C.3   120  CYS120      0.0970
      6  SG        19.6430    4.5410   19.4720 S.3   120  CYS120     -0.0800
      7  N         20.1160    3.5700   24.2500 N.am  121  THR121     -0.1953
      8  CA        20.1830    2.7900   25.4860 C.3   121  THR121      0.1897
      9  C         18.9530    3.0220   26.3730 C.2   121  THR121      0.2313
     10  O         18.3910    2.0650   26.9350 O.2   121  THR121     -0.2863
     11  CB        21.4660    3.1020   26.2510 C.3   121  THR121      0.1794
     12  OG1       22.5730    2.7080   25.4390 O.3   121  THR121     -0.2208
     13  CG2       21.5180    2.3340   27.5760 C.3   121  THR121      0.0378
     14  N         15.2940    2.7110   23.3550 N.3   124  LEU124     -0.1231
     15  CA        14.9330    1.4640   22.6820 C.3   124  LEU124      0.1678
     16  C         14.0930    0.5190   23.5530 C.2   124  LEU124      0.2434
     17  O         13.1730   -0.1090   23.0230 O.2   124  LEU124     -0.2733
     18  CB        16.1450    0.7290   22.0920 C.3   124  LEU124      0.0284
     19  CG        16.7430    1.3950   20.8420 C.3   124  LEU124      0.0019
     20  CD1       17.7770    0.4830   20.2090 C.3   124  LEU124      0.0001
     21  CD2       15.6800    1.7820   19.8250 C.3   124  LEU124      0.0001
     22  N         14.4030    0.4110   24.8690 N.am  125  PRO125     -0.2729
     23  CA        13.5520   -0.4230   25.7410 C.3   125  PRO125      0.1401
     24  C         12.0850    0.0150   25.8160 C.2   125  PRO125      0.2269
     25  O         11.2310   -0.7880   26.2320 O.2   125  PRO125     -0.2865
     26  CB        14.2150   -0.2780   27.1160 C.3   125  PRO125      0.0296
     27  CG        15.6610   -0.0530   26.7790 C.3   125  PRO125      0.0237
     28  CD        15.5700    0.9190   25.6210 C.3   125  PRO125      0.0939
     29  N         27.6700   -4.3700   20.2440 N.3   163  GLU163     -0.1231
     30  CA        27.6830   -2.9300   20.5040 C.3   163  GLU163      0.1699
     31  C         28.9530   -2.5500   21.2580 C.2   163  GLU163      0.2592
     32  O         29.5890   -1.5370   20.9580 O.2   163  GLU163     -0.2718
     33  CB        26.4340   -2.5160   21.2960 C.3   163  GLU163      0.0402
     34  CG        26.3800   -1.0270   21.6160 C.3   163  GLU163      0.1161
     35  CD        25.0440   -0.6160   22.2000 C.2   163  GLU163      0.3649
     36  OE1       25.0190    0.3790   22.9530 O.co2 163  GLU163     -0.2457
     37  OE2       24.0350   -1.3010   21.9300 O.co2 163  GLU163     -0.2457
     38  N         29.3340   -3.3740   22.2380 N.am  164  GLU164     -0.1979
     39  CA        30.5170   -3.0830   23.0480 C.3   164  GLU164      0.1602
     40  C         31.8050   -3.1590   22.2010 C.2   164  GLU164      0.2287
     41  O         32.7230   -2.3750   22.3970 O.2   164  GLU164     -0.2864
     42  CB        30.5660   -4.0130   24.2590 C.3   164  GLU164      0.0415
     43  CG        29.3530   -3.8500   25.2070 C.3   164  GLU164      0.1163
     44  CD        28.0420   -4.5130   24.7290 C.2   164  GLU164      0.3649
     45  OE1       26.9880   -4.2140   25.3600 O.co2 164  GLU164     -0.2457
     46  OE2       28.0300   -5.3320   23.7630 O.co2 164  GLU164     -0.2457
     47  N         21.7020   -3.0990   16.4000 N.3   206  HIS206     -0.1241
     48  CA        20.3940   -2.9560   17.0560 C.3   206  HIS206      0.1621
     49  C         19.2680   -3.6690   16.3190 C.2   206  HIS206      0.2264
     50  O         18.3610   -4.2140   16.9670 O.2   206  HIS206     -0.2867
     51  CB        20.0550   -1.4890   17.2900 C.3   206  HIS206      0.0745
     52  CG        20.8830   -0.8620   18.3620 C.ar  206  HIS206      0.0817
     53  ND1       20.8520    0.4880   18.6250 N.ar  206  HIS206     -0.2268
     54  CD2       21.7720   -1.3990   19.2360 C.ar  206  HIS206      0.1154
     55  CE1       21.6760    0.7580   19.6250 C.ar  206  HIS206      0.1986
     56  NE2       22.2410   -0.3710   20.0190 N.ar  206  HIS206     -0.2212
     57  N         19.6220   -7.3240   17.2200 N.3   209  LYS209     -0.1231
     58  CA        19.1650   -7.5790   18.5840 C.3   209  LYS209      0.1693
     59  C         17.6340   -7.5340   18.6770 C.2   209  LYS209      0.2591
     60  O         17.0220   -8.3300   19.3980 O.2   209  LYS209     -0.2718
     61  CB        19.8360   -6.6150   19.5510 C.3   209  LYS209      0.0285
     62  CG        21.3270   -6.8830   19.7200 C.3   209  LYS209      0.0035
     63  CD        22.0260   -5.7390   20.3970 C.3   209  LYS209      0.0206
     64  CE        23.4140   -6.1230   20.8590 C.3   209  LYS209      0.1093
     65  NZ        23.3560   -7.0310   22.0440 N.3   209  LYS209     -0.1314
     66  N         17.0140   -6.6400   17.9080 N.am  210  LEU210     -0.1980
     67  CA        15.5520   -6.6020   17.8470 C.3   210  LEU210      0.1596
     68  C         14.9830   -7.8990   17.2800 C.2   210  LEU210      0.2287
     69  O         13.9960   -8.4090   17.8020 O.2   210  LEU210     -0.2864
     70  CB        15.0800   -5.4050   17.0100 C.3   210  LEU210      0.0297
     71  CG        15.0980   -4.0450   17.7100 C.3   210  LEU210      0.0022
     72  CD1       14.9980   -2.9340   16.6440 C.3   210  LEU210      0.0001
     73  CD2       13.9750   -3.9230   18.7280 C.3   210  LEU210      0.0001
     74  N         15.7560  -10.7460   19.9510 N.3   213  GLN213     -0.1231
     75  CA        15.1530  -10.6010   21.2860 C.3   213  GLN213      0.1698
     76  C         13.6870  -10.1900   21.2990 C.2   213  GLN213      0.2592
     77  O         13.0220  -10.3280   22.3270 O.2   213  GLN213     -0.2718
     78  CB        15.9300   -9.6010   22.1540 C.3   213  GLN213      0.0381
     79  CG        17.3100  -10.0530   22.6020 C.3   213  GLN213      0.0905
     80  CD        18.0130   -9.0170   23.4760 C.2   213  GLN213      0.2608
     81  OE1       17.3730   -8.2670   24.2180 O.2   213  GLN213     -0.2717
     82  NE2       19.3450   -8.9730   23.3880 N.am  213  GLN213     -0.0878
     83  N         13.1880   -9.6530   20.1860 N.am  214  ARG214     -0.1980
     84  CA        11.8000   -9.1880   20.1340 C.3   214  ARG214      0.1597
     85  C         11.0790   -9.6710   18.8900 C.2   214  ARG214      0.2287
     86  O         10.3360   -8.9140   18.2570 O.2   214  ARG214     -0.2864
     87  CB        11.7220   -7.6670   20.2550 C.3   214  ARG214      0.0334
     88  CG        12.1600   -7.1780   21.6090 C.3   214  ARG214      0.0492
     89  CD        11.8390   -5.7360   21.8100 C.3   214  ARG214      0.2205
     90  NE        10.4030   -5.4670   21.9020 N.pl3 214  ARG214     -0.0865
     91  CZ         9.9210   -4.2560   22.1570 C.cat 214  ARG214      0.5346
     92  NH1       10.7710   -3.2620   22.3630 N.pl3 214  ARG214      0.1354
     93  NH2        8.6160   -4.0410   22.2160 N.pl3 214  ARG214      0.1354
@<TRIPOS>BOND
     1    49    50    2
     2    49    48    1
     3    47    48    1
     4    72    71    1
     5    70    71    1
     6    70    67    1
     7    48    51    1
     8    57    58    1
     9    68    69    2
    10    68    67    1
    11    51    52    1
    12    71    73    1
    13    67    66    1
    14    66    59   am
    15    86    85    2
    16    52    53   ar
    17    52    54   ar
    18    58    59    1
    19    58    61    1
    20    53    55   ar
    21    59    60    2
    22    85    84    1
    23    54    56   ar
    24     6     5    1
    25    61    62    1
    26    55    56   ar
    27    62    63    1
    28    21    19    1
    29    74    75    1
    30    84    83    1
    31    84    87    1
    32    83    76   am
    33    20    19    1
    34    29    30    1
    35    87    88    1
    36    63    64    1
    37    30    31    1
    38    30    33    1
    39    19    18    1
    40    64    65    1
    41    32    31    2
    42     5     2    1
    43    31    38   am
    44    75    76    1
    45    75    78    1
    46    33    34    1
    47    76    77    2
    48    88    89    1
    49    34    35    1
    50    89    90    1
    51    90    91    2
    52    37    35   ar
    53    18    15    1
    54    78    79    1
    55    91    93    1
    56    91    92    1
    57     2     1    1
    58     2     3    1
    59    35    36   ar
    60    40    41    2
    61    40    39    1
    62    38    39    1
    63    79    80    1
    64    15    14    1
    65    15    16    1
    66    17    16    2
    67    39    42    1
    68    82    80   am
    69     3     4    2
    70     3     7   am
    71    80    81    2
    72    16    22   am
    73    46    44   ar
    74     7     8    1
    75    42    43    1
    76    44    43    1
    77    44    45   ar
    78    22    28    1
    79    22    23    1
    80    12    11    1
    81     8    11    1
    82     8     9    1
    83    28    27    1
    84    23    24    1
    85    23    26    1
    86    24    25    2
    87    11    13    1
    88     9    10    2
    89    27    26    1
