@<TRIPOS>MOLECULE
tmp/3bhlB00.pdb
 163 156 0 0 0
SMALL
GASTEIGER

@<TRIPOS>ATOM
      1  N         76.7120   32.9090    1.6390 N.3    19  ASP19      -0.1225
      2  CA        77.1420   31.9450    0.6470 C.3    19  ASP19       0.1805
      3  C         77.0280   32.5920   -0.7190 C.2    19  ASP19       0.2598
      4  O         76.5260   33.7020   -0.8570 O.2    19  ASP19      -0.2718
      5  CB        76.2740   30.6750    0.6910 C.3    19  ASP19       0.1424
      6  CG        74.8730   30.9250    0.1710 C.2    19  ASP19       0.3668
      7  OD1       74.1690   31.7440    0.7790 O.co2  19  ASP19      -0.2456
      8  OD2       74.5060   30.3550   -0.8640 O.co2  19  ASP19      -0.2456
      9  N         77.4980   31.8560   -1.6970 N.am   20  ARG20      -0.1966
     10  CA        77.5330   32.2210   -3.1330 C.3    20  ARG20       0.1729
     11  C         76.2320   32.8250   -3.6010 C.2    20  ARG20       0.2616
     12  O         76.2090   33.7770   -4.3560 O.2    20  ARG20      -0.2715
     13  CB        77.8400   30.9810   -3.9850 C.3    20  ARG20       0.0348
     14  CG        77.8130   31.1970   -5.4820 C.3    20  ARG20       0.0492
     15  CD        78.1550   29.9550   -6.2470 C.3    20  ARG20       0.2205
     16  NE        77.2100   28.8850   -5.9410 N.pl3  20  ARG20      -0.0865
     17  CZ        75.9800   28.7850   -6.4270 C.cat  20  ARG20       0.5346
     18  NH1       75.5250   29.6870   -7.3030 N.pl3  20  ARG20       0.1354
     19  NH2       75.2190   27.8050   -6.0440 N.pl3  20  ARG20       0.1354
     20  N         75.1370   32.2310   -3.1810 N.am   21  THR21      -0.1951
     21  CA        73.7920   32.6130   -3.6870 C.3    21  THR21       0.1897
     22  C         73.2270   33.8680   -3.0230 C.2    21  THR21       0.2313
     23  O         72.2100   34.4110   -3.4660 O.2    21  THR21      -0.2863
     24  CB        72.7750   31.4800   -3.4780 C.3    21  THR21       0.1794
     25  OG1       72.4170   31.3980   -2.0810 O.3    21  THR21      -0.2208
     26  CG2       73.3110   30.1050   -3.9980 C.3    21  THR21       0.0378
     27  N         67.8370   11.3870  -13.6730 N.3    57  GLU57      -0.1245
     28  CA        69.1070   12.1190  -13.4930 C.3    57  GLU57       0.1567
     29  C         70.2970   11.1460  -13.5080 C.2    57  GLU57       0.2260
     30  O         71.2960   11.3970  -14.1450 O.2    57  GLU57      -0.2867
     31  CB        69.1220   13.0130  -12.2380 C.3    57  GLU57       0.0388
     32  CG        70.3910   13.8610  -12.1410 C.3    57  GLU57       0.1160
     33  CD        70.6070   14.4830  -10.7660 C.2    57  GLU57       0.3649
     34  OE1       70.3590   13.8130   -9.7550 O.co2  57  GLU57      -0.2457
     35  OE2       71.0460   15.6560  -10.6990 O.co2  57  GLU57      -0.2457
     36  N         67.2730   20.6540  -13.2660 N.3    79  TRP79      -0.1241
     37  CA        68.5180   21.3270  -13.7280 C.3    79  TRP79       0.1605
     38  C         68.2900   22.6340  -14.4810 C.2    79  TRP79       0.2264
     39  O         69.2120   23.2370  -15.0180 O.2    79  TRP79      -0.2867
     40  CB        69.3890   20.3810  -14.5780 C.3    79  TRP79       0.0550
     41  CG        70.2670   19.5490  -13.6870 C.ar   79  TRP79       0.0003
     42  CD1       70.0460   18.2840  -13.2630 C.ar   79  TRP79       0.0946
     43  CD2       71.4610   19.9950  -13.0360 C.ar   79  TRP79       0.0152
     44  NE1       71.0860   17.8620  -12.4410 N.ar   79  TRP79      -0.2442
     45  CE2       71.9560   18.9090  -12.2760 C.ar   79  TRP79       0.0810
     46  CE3       72.1740   21.1890  -13.0490 C.ar   79  TRP79       0.0012
     47  CZ2       73.1330   18.9940  -11.5240 C.ar   79  TRP79       0.0191
     48  CZ3       73.3330   21.2710  -12.2980 C.ar   79  TRP79       0.0001
     49  CH2       73.7980   20.1730  -11.5430 C.ar   79  TRP79       0.0015
     50  N         79.0340   16.5190  -14.1840 N.3    93  TYR93      -0.1241
     51  CA        78.9870   15.0980  -13.8330 C.3    93  TYR93       0.1605
     52  C         79.1230   14.1090  -14.9780 C.2    93  TYR93       0.2264
     53  O         80.1120   13.4120  -15.0640 O.2    93  TYR93      -0.2867
     54  CB        77.6980   14.7670  -13.0510 C.3    93  TYR93       0.0534
     55  CG        77.5180   15.5630  -11.7740 C.ar   93  TYR93      -0.0201
     56  CD1       78.2700   15.2940  -10.6260 C.ar   93  TYR93      -0.0009
     57  CD2       76.6000   16.6080  -11.7290 C.ar   93  TYR93      -0.0009
     58  CE1       78.0690   16.0390   -9.4690 C.ar   93  TYR93       0.0417
     59  CE2       76.4160   17.3610  -10.5830 C.ar   93  TYR93       0.0417
     60  CZ        77.1440   17.0620   -9.4600 C.ar   93  TYR93       0.1957
     61  OH        76.8800   17.8090   -8.3190 O.3    93  TYR93      -0.2866
     62  N         77.9550   24.7420  -12.4810 N.3   142  LEU142     -0.1231
     63  CA        78.1200   24.5960  -11.0090 C.3   142  LEU142      0.1693
     64  C         79.2930   23.6370  -10.8490 C.2   142  LEU142      0.2591
     65  O         79.4400   22.6980  -11.6210 O.2   142  LEU142     -0.2718
     66  CB        76.8780   23.9680  -10.3340 C.3   142  LEU142      0.0284
     67  CG        75.9470   24.6950   -9.3810 C.3   142  LEU142      0.0019
     68  CD1       75.9030   26.2100   -9.4240 C.3   142  LEU142      0.0001
     69  CD2       74.5500   24.0830   -9.4540 C.3   142  LEU142      0.0001
     70  N         80.0760   23.8580   -9.8070 N.am  143  ALA143     -0.1980
     71  CA        81.1000   22.8690   -9.4480 C.3   143  ALA143      0.1597
     72  C         80.3690   21.6390   -8.8890 C.2   143  ALA143      0.2287
     73  O         79.3280   21.7380   -8.2640 O.2   143  ALA143     -0.2864
     74  CB        82.0700   23.4270   -8.4140 C.3   143  ALA143      0.0319
     75  N         78.8370   18.9810   -6.6900 N.3   145  CYS145     -0.1221
     76  CA        78.5390   18.8630   -5.2560 C.3   145  CYS145      0.1808
     77  C         78.9180   17.4950   -4.7680 C.2   145  CYS145      0.2601
     78  O         79.6260   17.3250   -3.7650 O.2   145  CYS145     -0.2717
     79  CB        77.0660   19.1070   -4.9790 C.3   145  CYS145      0.0970
     80  SG        76.5440   20.7630   -5.4170 S.3   145  CYS145     -0.0800
     81  N         78.3930   16.4800   -5.4460 N.am  146  HIS146     -0.1975
     82  CA        78.7780   15.0870   -5.1660 C.3   146  HIS146      0.1656
     83  C         80.0100   14.8570   -6.0220 C.2   146  HIS146      0.2291
     84  O         79.9410   14.5840   -7.2000 O.2   146  HIS146     -0.2864
     85  CB        77.6210   14.0720   -5.3600 C.3   146  HIS146      0.0771
     86  CG        76.8320   14.2010   -6.6330 C.ar  146  HIS146      0.0820
     87  ND1       76.9750   13.3040   -7.6650 N.ar  146  HIS146     -0.2267
     88  CD2       75.8700   15.0710   -7.0180 C.ar  146  HIS146      0.1154
     89  CE1       76.1110   13.6000   -8.6210 C.ar  146  HIS146      0.1986
     90  NE2       75.4320   14.6690   -8.2620 N.ar  146  HIS146     -0.2212
     91  N         80.8130   14.4310   -0.5230 N.3   164  GLN164     -0.1231
     92  CA        79.9460   15.4920   -1.0210 C.3   164  GLN164      0.1698
     93  C         80.4580   16.8080   -0.4180 C.2   164  GLN164      0.2592
     94  O         80.2890   17.0680    0.7930 O.2   164  GLN164     -0.2718
     95  CB        78.4850   15.2410   -0.6520 C.3   164  GLN164      0.0381
     96  CG        77.5980   16.3270   -1.2260 C.3   164  GLN164      0.0905
     97  CD        76.1520   15.9220   -1.3310 C.2   164  GLN164      0.2608
     98  OE1       75.7980   14.7630   -1.0940 O.2   164  GLN164     -0.2717
     99  NE2       75.2890   16.9070   -1.6210 N.am  164  GLN164     -0.0878
    100  N         81.1440   17.5910   -1.2440 N.am  165  ARG165     -0.1966
    101  CA        81.8320   18.7930   -0.7650 C.3   165  ARG165      0.1729
    102  C         80.8650   19.8730   -0.2770 C.2   165  ARG165      0.2616
    103  O         81.2170   20.7440    0.5030 O.2   165  ARG165     -0.2715
    104  CB        82.7760   19.3450   -1.8240 C.3   165  ARG165      0.0348
    105  CG        82.0290   19.7100   -3.0960 C.3   165  ARG165      0.0492
    106  CD        82.2680   21.0980   -3.5440 C.3   165  ARG165      0.2205
    107  NE        81.3350   21.4540   -4.6020 N.pl3 165  ARG165     -0.0865
    108  CZ        80.5900   22.5430   -4.6070 C.cat 165  ARG165      0.5346
    109  NH1       80.7060   23.4550   -3.6660 N.pl3 165  ARG165      0.1354
    110  NH2       79.7140   22.6670   -5.5710 N.pl3 165  ARG165      0.1354
    111  N         79.6390   19.8220   -0.7760 N.am  166  SER166     -0.1950
    112  CA        78.6170   20.8490   -0.5080 C.3   166  SER166      0.1924
    113  C         77.2510   20.1850   -0.5610 C.2   166  SER166      0.2314
    114  O         76.9490   19.4770   -1.5380 O.2   166  SER166     -0.2863
    115  CB        78.7120   21.9590   -1.5440 C.3   166  SER166      0.2116
    116  OG        77.7950   22.9660   -1.2260 O.3   166  SER166     -0.2180
    117  N         73.1470   20.7740    0.2980 N.3   168  ASP168     -0.1239
    118  CA        71.8710   21.3830    0.6430 C.3   168  ASP168      0.1674
    119  C         71.0850   20.2490    1.3110 C.2   168  ASP168      0.2266
    120  O         70.6000   19.3540    0.6510 O.2   168  ASP168     -0.2867
    121  CB        71.1980   21.9450   -0.6200 C.3   168  ASP168      0.1410
    122  CG        69.8500   22.5510   -0.3780 C.2   168  ASP168      0.3668
    123  OD1       69.1980   22.1810    0.6130 O.co2 168  ASP168     -0.2456
    124  OD2       69.4540   23.3480   -1.2610 O.co2 168  ASP168     -0.2456
    125  N         68.9270   18.8020   -1.5980 N.3   172  GLY172     -0.1225
    126  CA        69.8720   17.9370   -2.3110 C.3   172  GLY172      0.1811
    127  C         70.0870   16.5850   -1.6960 C.2   172  GLY172      0.2280
    128  O         70.0340   15.5760   -2.3680 O.2   172  GLY172     -0.2866
    129  N         70.6820   12.8820   -3.3870 N.3   176  ASN176     -0.1240
    130  CA        72.0470   12.3780   -3.4400 C.3   176  ASN176      0.1653
    131  C         72.1380   10.9790   -2.8170 C.2   176  ASN176      0.2266
    132  O         72.7640   10.0730   -3.3690 O.2   176  ASN176     -0.2867
    133  CB        73.0180   13.3340   -2.7310 C.3   176  ASN176      0.1155
    134  CG        73.1830   14.6420   -3.4460 C.2   176  ASN176      0.2627
    135  OD1       72.9790   15.7090   -2.8660 O.2   176  ASN176     -0.2716
    136  ND2       73.5780   14.5790   -4.7050 N.am  176  ASN176     -0.0877
    137  N         74.7470   22.0770    4.9390 N.3   206  HIS206     -0.1241
    138  CA        74.0310   23.2920    5.3040 C.3   206  HIS206      0.1621
    139  C         72.5340   23.2340    5.0940 C.2   206  HIS206      0.2264
    140  O         72.0170   22.4710    4.3220 O.2   206  HIS206     -0.2867
    141  CB        74.6440   24.4780    4.5650 C.3   206  HIS206      0.0745
    142  CG        74.7310   24.2870    3.0980 C.ar  206  HIS206      0.0817
    143  ND1       75.8810   23.8100    2.5110 N.ar  206  HIS206     -0.2268
    144  CD2       73.8230   24.4320    2.0960 C.ar  206  HIS206      0.1154
    145  CE1       75.6810   23.6690    1.2140 C.ar  206  HIS206      0.1986
    146  NE2       74.4490   24.0540    0.9260 N.ar  206  HIS206     -0.2212
    147  N         69.6620   26.0800    4.0970 N.3   208  TYR208     -0.1241
    148  CA        69.3970   27.4470    3.6370 C.3   208  TYR208      0.1605
    149  C         68.4460   28.1590    4.5610 C.2   208  TYR208      0.2264
    150  O         67.5150   27.5920    5.1010 O.2   208  TYR208     -0.2867
    151  CB        68.9050   27.4890    2.1880 C.3   208  TYR208      0.0534
    152  CG        70.0340   27.3060    1.2070 C.ar  208  TYR208     -0.0201
    153  CD1       70.8340   28.3640    0.8760 C.ar  208  TYR208     -0.0009
    154  CD2       70.3090   26.0860    0.6260 C.ar  208  TYR208     -0.0009
    155  CE1       71.8710   28.2250   -0.0160 C.ar  208  TYR208      0.0417
    156  CE2       71.3820   25.9250   -0.2550 C.ar  208  TYR208      0.0417
    157  CZ        72.1460   27.0070   -0.5790 C.ar  208  TYR208      0.1957
    158  OH        73.2180   26.9090   -1.4740 O.3   208  TYR208     -0.2866
    159  N         68.0190   27.7750   -4.0650 N.3   262  ALA262     -0.1245
    160  CA        68.9300   28.9430   -4.0710 C.3   262  ALA262      0.1562
    161  C         69.8350   28.8780   -5.2890 C.2   262  ALA262      0.2260
    162  O         70.5890   27.9420   -5.4520 O.2   262  ALA262     -0.2867
    163  CB        69.7870   28.9850   -2.8020 C.3   262  ALA262      0.0290
@<TRIPOS>BOND
     1    53    52    2
     2    39    38    2
     3    52    51    1
     4    40    37    1
     5    40    41    1
     6    38    37    1
     7    50    51    1
     8    30    29    2
     9    51    54    1
    10    37    36    1
    11    41    42   ar
    12    41    43   ar
    13    27    28    1
    14    29    28    1
    15    28    31    1
    16    42    44   ar
    17    54    55    1
    18    46    43   ar
    19    46    48   ar
    20    43    45   ar
    21    62    63    1
    22    44    45   ar
    23    48    49   ar
    24    45    47   ar
    25    31    32    1
    26    32    33    1
    27    55    57   ar
    28    55    56   ar
    29    57    59   ar
    30    65    64    2
    31    49    47   ar
    32    63    64    1
    33    63    66    1
    34    64    70   am
    35    33    35   ar
    36    33    34   ar
    37    56    58   ar
    38    59    60   ar
    39    66    67    1
    40    70    71    1
    41    58    60   ar
    42    60    61    1
    43    69    67    1
    44    71    72    1
    45    71    74    1
    46    68    67    1
    47    72    73    2
    48    89    90   ar
    49    89    87   ar
    50    90    88   ar
    51    87    86   ar
    52    18    17    1
    53    84    83    2
    54    88    86   ar
    55    75    76    1
    56    86    85    1
    57    17    19    1
    58    17    16    2
    59    15    16    1
    60    15    14    1
    61    83    82    1
    62   110   108    1
    63    14    13    1
    64   162   161    2
    65    81    82    1
    66    81    77   am
    67    80    79    1
    68    85    82    1
    69   161   160    1
    70    76    79    1
    71    76    77    1
    72    77    78    2
    73   136   134   am
    74   108   107    2
    75   108   109    1
    76   107   106    1
    77    12    11    2
    78   160   159    1
    79   160   163    1
    80    26    24    1
    81    13    10    1
    82    21    24    1
    83    21    20    1
    84    21    22    1
    85    11    20   am
    86    11    10    1
    87   106   105    1
    88    24    25    1
    89    23    22    2
    90   134   135    2
    91   134   133    1
    92   130   129    1
    93   130   131    1
    94   130   133    1
    95   132   131    2
    96    10     9    1
    97   105   104    1
    98   128   127    2
    99   126   127    1
   100   126   125    1
   101   104   101    1
   102     9     3   am
   103    99    97   am
   104   115   116    1
   105   115   112    1
   106   114   113    2
   107   158   157    1
   108    97    96    1
   109    97    98    2
   110   124   122   ar
   111   100   101    1
   112   100    93   am
   113    96    95    1
   114    92    95    1
   115    92    91    1
   116    92    93    1
   117     8     6   ar
   118     4     3    2
   119   111   112    1
   120   111   102   am
   121   101   102    1
   122     3     2    1
   123   121   122    1
   124   121   118    1
   125   157   156   ar
   126   157   155   ar
   127   113   112    1
   128    93    94    2
   129   122   123   ar
   130   102   103    2
   131   156   154   ar
   132   155   153   ar
   133     6     5    1
   134     6     7   ar
   135   117   118    1
   136   154   152   ar
   137   118   119    1
   138     2     5    1
   139     2     1    1
   140   120   119    2
   141   153   152   ar
   142   146   145   ar
   143   146   144   ar
   144   152   151    1
   145   145   143   ar
   146   144   142   ar
   147   151   148    1
   148   143   142   ar
   149   142   141    1
   150   148   147    1
   151   148   149    1
   152   140   139    2
   153   149   150    2
   154   141   138    1
   155   137   138    1
   156   139   138    1
