@<TRIPOS>MOLECULE
tmp/3bhoA00.pdb
 102 98 0 0 0
SMALL
GASTEIGER

@<TRIPOS>ATOM
      1  N          4.7320    7.4520    9.4850 N.3    44  ARG44      -0.1245
      2  CA         5.4370    8.3180   10.4230 C.3    44  ARG44       0.1563
      3  C          6.8650    7.8380   10.6430 C.2    44  ARG44       0.2260
      4  O          7.8140    8.6010   10.4930 O.2    44  ARG44      -0.2867
      5  CB         4.7030    8.3720   11.7650 C.3    44  ARG44       0.0307
      6  CG         5.2980    9.3770   12.7460 C.3    44  ARG44       0.0489
      7  CD         4.2650    9.8180   13.7720 C.3    44  ARG44       0.2205
      8  NE         4.4120    9.1410   15.0560 N.pl3  44  ARG44      -0.0865
      9  CZ         5.3170    9.4690   15.9720 C.cat  44  ARG44       0.5346
     10  NH1        6.1590   10.4680   15.7470 N.pl3  44  ARG44       0.1354
     11  NH2        5.3740    8.8030   17.1180 N.pl3  44  ARG44       0.1354
     12  N          8.4590   21.8930   21.6990 N.3    62  GLU62      -0.1245
     13  CA         7.0620   22.0140   22.0760 C.3    62  GLU62       0.1567
     14  C          6.9060   23.1040   23.1090 C.2    62  GLU62       0.2260
     15  O          7.7470   23.2570   23.9940 O.2    62  GLU62      -0.2867
     16  CB         6.5570   20.6880   22.6340 C.3    62  GLU62       0.0388
     17  CG         6.7450   19.5300   21.6640 C.3    62  GLU62       0.1160
     18  CD         6.2320   18.2220   22.2120 C.2    62  GLU62       0.3649
     19  OE1        5.0080   18.0990   22.4180 O.co2  62  GLU62      -0.2457
     20  OE2        7.0560   17.3140   22.4400 O.co2  62  GLU62      -0.2457
     21  N         -6.9020   12.1180   21.6040 N.3    84  PHE84      -0.1227
     22  CA        -5.6600   12.5560   20.9850 C.3    84  PHE84       0.1736
     23  C         -5.4170   14.0400   21.2700 C.2    84  PHE84       0.2595
     24  O         -6.1380   14.9060   20.7770 O.2    84  PHE84      -0.2718
     25  CB        -5.7390   12.2750   19.4770 C.3    84  PHE84       0.0547
     26  CG        -4.5100   12.6610   18.7060 C.ar   84  PHE84      -0.0202
     27  CD1       -3.2500   12.6270   19.2930 C.ar   84  PHE84      -0.0042
     28  CD2       -4.6130   13.0240   17.3650 C.ar   84  PHE84      -0.0042
     29  CE1       -2.1110   12.9500   18.5550 C.ar   84  PHE84      -0.0003
     30  CE2       -3.4820   13.3470   16.6200 C.ar   84  PHE84      -0.0003
     31  CZ        -2.2280   13.3100   17.2170 C.ar   84  PHE84      -0.0000
     32  N         -4.4000   14.3150   22.0850 N.am   85  PHE85      -0.1962
     33  CA        -4.0430   15.6780   22.4710 C.3    85  PHE85       0.1771
     34  C         -2.5700   15.9400   22.1890 C.2    85  PHE85       0.2619
     35  O         -1.7320   15.0480   22.3270 O.2    85  PHE85      -0.2715
     36  CB        -4.2940   15.8860   23.9650 C.3    85  PHE85       0.0574
     37  CG        -5.7380   15.7880   24.3650 C.ar   85  PHE85      -0.0200
     38  CD1       -6.5340   16.9260   24.4250 C.ar   85  PHE85      -0.0042
     39  CD2       -6.3010   14.5570   24.6930 C.ar   85  PHE85      -0.0042
     40  CE1       -7.8720   16.8450   24.8070 C.ar   85  PHE85      -0.0003
     41  CE2       -7.6410   14.4640   25.0760 C.ar   85  PHE85      -0.0003
     42  CZ        -8.4260   15.6100   25.1340 C.ar   85  PHE85      -0.0000
     43  N         -2.2480   17.1670   21.8030 N.am   86  LYS86      -0.1977
     44  CA        -0.8610   17.5020   21.5330 C.3    86  LYS86       0.1596
     45  C         -0.5370   18.9120   22.0040 C.2    86  LYS86       0.2287
     46  O         -1.4300   19.7370   22.1950 O.2    86  LYS86      -0.2864
     47  CB        -0.5740   17.3710   20.0340 C.3    86  LYS86       0.0298
     48  CG        -1.1680   18.4800   19.1780 C.3    86  LYS86       0.0038
     49  CD        -1.2750   18.0690   17.7090 C.3    86  LYS86       0.0206
     50  CE         0.0440   17.5510   17.1540 C.3    86  LYS86       0.1093
     51  NZ         1.1200   18.5750   17.2200 N.3    86  LYS86      -0.1314
     52  N         14.2530    9.7460   21.8130 N.3   126  ARG126     -0.1245
     53  CA        13.7190    8.5330   21.1990 C.3   126  ARG126      0.1563
     54  C         14.9390    7.7900   20.6520 C.2   126  ARG126      0.2260
     55  O         15.5300    8.1950   19.6540 O.2   126  ARG126     -0.2867
     56  CB        12.7610    8.8940   20.0590 C.3   126  ARG126      0.0307
     57  CG        11.9670    7.7130   19.5160 C.3   126  ARG126      0.0489
     58  CD        11.2890    8.0790   18.2000 C.3   126  ARG126      0.2205
     59  NE        10.3660    9.2030   18.3320 N.pl3 126  ARG126     -0.0865
     60  CZ         9.1420    9.1170   18.8420 C.cat 126  ARG126      0.5346
     61  NH1        8.6800    7.9510   19.2770 N.pl3 126  ARG126      0.1354
     62  NH2        8.3770   10.1970   18.9130 N.pl3 126  ARG126      0.1354
     63  N          8.0740    3.7980   19.2300 N.3   131  PRO131     -0.2116
     64  CA         7.3870    4.7390   20.1230 C.3   131  PRO131      0.1372
     65  C          8.1010    5.1470   21.4230 C.2   131  PRO131      0.2244
     66  O          7.9810    6.2910   21.8640 O.2   131  PRO131     -0.2868
     67  CB         6.0660    4.0280   20.4130 C.3   131  PRO131      0.0268
     68  CG         5.8020    3.2920   19.1340 C.3   131  PRO131      0.0207
     69  CD         7.1640    2.7070   18.8270 C.3   131  PRO131      0.0892
     70  N         10.0990    6.6450   24.3610 N.3   133  GLN133     -0.1245
     71  CA        10.8130    7.9030   24.5740 C.3   133  GLN133      0.1566
     72  C         11.2160    7.9660   26.0510 C.2   133  GLN133      0.2260
     73  O         10.4890    7.4790   26.9190 O.2   133  GLN133     -0.2867
     74  CB         9.9250    9.1000   24.2310 C.3   133  GLN133      0.0367
     75  CG         9.4740    9.1560   22.7800 C.3   133  GLN133      0.0905
     76  CD         8.5980   10.3630   22.4940 C.2   133  GLN133      0.2608
     77  OE1        9.0900   11.4790   22.3230 O.2   133  GLN133     -0.2717
     78  NE2        7.2900   10.1450   22.4560 N.am  133  GLN133     -0.0878
     79  N         13.3200   15.7680   21.6590 N.3   148  LYS148     -0.1245
     80  CA        12.2250   16.7100   21.8610 C.3   148  LYS148      0.1561
     81  C         12.5740   17.5990   23.0460 C.2   148  LYS148      0.2260
     82  O         12.9430   17.0980   24.1100 O.2   148  LYS148     -0.2867
     83  CB        10.9160   15.9640   22.1570 C.3   148  LYS148      0.0271
     84  CG        10.4040   15.1170   20.9960 C.3   148  LYS148      0.0035
     85  CD         8.9660   15.4860   20.6240 C.3   148  LYS148      0.0206
     86  CE         7.9300   14.7330   21.4460 C.3   148  LYS148      0.1093
     87  NZ         7.6780   13.3670   20.9060 N.3   148  LYS148     -0.1314
     88  N          3.4810    9.7820   28.0320 N.3   186  PRO186     -0.2102
     89  CA         4.5360   10.0160   29.0240 C.3   186  PRO186      0.1504
     90  C          5.0270   11.4510   29.2040 C.2   186  PRO186      0.2575
     91  O          5.4420   11.8350   30.3000 O.2   186  PRO186     -0.2718
     92  CB         5.6520    9.0910   28.5510 C.3   186  PRO186      0.0282
     93  CG         5.5050    9.1530   27.0650 C.3   186  PRO186      0.0208
     94  CD         4.0050    9.0090   26.8910 C.3   186  PRO186      0.0893
     95  N          4.9920   12.2330   28.1320 N.am  187  ILE187     -0.1980
     96  CA         5.4650   13.6150   28.1860 C.3   187  ILE187      0.1595
     97  C          4.4430   14.5810   28.7850 C.2   187  ILE187      0.2287
     98  O          4.7370   15.2960   29.7490 O.2   187  ILE187     -0.2864
     99  CB         5.8780   14.0880   26.7770 C.3   187  ILE187      0.0276
    100  CG1        7.0190   13.1990   26.2660 C.3   187  ILE187      0.0022
    101  CG2        6.3190   15.5480   26.8080 C.3   187  ILE187      0.0022
    102  CD1        7.5120   13.5650   24.8870 C.3   187  ILE187      0.0001
@<TRIPOS>BOND
     1     1     2    1
     2     2     3    1
     3     2     5    1
     4     4     3    2
     5     5     6    1
     6     6     7    1
     7     7     8    1
     8     8     9    2
     9    10     9    1
    10     9    11    1
    11    30    31   ar
    12    30    28   ar
    13    50    51    1
    14    50    49    1
    15    31    29   ar
    16    28    26   ar
    17    49    48    1
    18    58    59    1
    19    58    57    1
    20    59    60    2
    21    29    27   ar
    22    26    27   ar
    23    26    25    1
    24    69    68    1
    25    69    63    1
    26    60    62    1
    27    60    61    1
    28    68    67    1
    29    48    47    1
    30    63    64    1
    31    25    22    1
    32    57    56    1
    33    55    54    2
    34    47    44    1
    35    56    53    1
    36    64    67    1
    37    64    65    1
    38    85    84    1
    39    85    86    1
    40    54    53    1
    41    24    23    2
    42    87    86    1
    43    22    23    1
    44    22    21    1
    45    84    83    1
    46    53    52    1
    47    23    32   am
    48    65    66    2
    49    44    43    1
    50    44    45    1
    51    79    80    1
    52    17    18    1
    53    17    16    1
    54    12    13    1
    55    43    34   am
    56    80    83    1
    57    80    81    1
    58    45    46    2
    59    13    16    1
    60    13    14    1
    61    32    33    1
    62    34    35    2
    63    34    33    1
    64    18    19   ar
    65    18    20   ar
    66    77    76    2
    67    78    76   am
    68    33    36    1
    69    76    75    1
    70    75    74    1
    71    81    82    2
    72    14    15    2
    73    36    37    1
    74    74    71    1
    75    70    71    1
    76    37    38   ar
    77    37    39   ar
    78    38    40   ar
    79    71    72    1
    80    39    41   ar
    81    40    42   ar
    82   102   100    1
    83    41    42   ar
    84    72    73    2
    85   100    99    1
    86    99   101    1
    87    99    96    1
    88    94    93    1
    89    94    88    1
    90    93    92    1
    91    88    89    1
    92    95    96    1
    93    95    90   am
    94    96    97    1
    95    92    89    1
    96    97    98    2
    97    89    90    1
    98    90    91    2
