@<TRIPOS>MOLECULE
tmp/3bhrA00.pdb
 154 151 0 0 0
SMALL
GASTEIGER

@<TRIPOS>ATOM
      1  N         57.6140  -22.9940   31.1240 N.3    47  LYS47      -0.1231
      2  CA        56.7180  -24.1280   31.2380 C.3    47  LYS47       0.1693
      3  C         55.6950  -24.0880   30.0710 C.2    47  LYS47       0.2592
      4  O         55.2930  -23.0300   29.6220 O.2    47  LYS47      -0.2718
      5  CB        55.9780  -24.1540   32.5780 C.3    47  LYS47       0.0285
      6  CG        54.7100  -23.3780   32.6240 C.3    47  LYS47       0.0035
      7  CD        53.9780  -23.4250   33.9520 C.3    47  LYS47       0.0206
      8  CE        52.7180  -22.5750   33.8460 C.3    47  LYS47       0.1093
      9  NZ        52.0610  -22.3810   35.1470 N.3    47  LYS47      -0.1314
     10  N         55.2390  -25.2320   29.6310 N.am   48  ARG48      -0.1966
     11  CA        54.2550  -25.2280   28.5670 C.3    48  ARG48       0.1729
     12  C         52.9140  -24.7230   29.0500 C.2    48  ARG48       0.2616
     13  O         52.3490  -25.2660   29.9820 O.2    48  ARG48      -0.2715
     14  CB        54.0760  -26.5930   27.9460 C.3    48  ARG48       0.0348
     15  CG        53.0460  -26.6450   26.8400 C.3    48  ARG48       0.0492
     16  CD        52.9970  -28.0410   26.1900 C.3    48  ARG48       0.2205
     17  NE        54.1070  -28.2830   25.2570 N.pl3  48  ARG48      -0.0865
     18  CZ        54.1540  -27.7910   24.0190 C.cat  48  ARG48       0.5346
     19  NH1       53.1780  -27.0410   23.5390 N.pl3  48  ARG48       0.1354
     20  NH2       55.1800  -28.0500   23.2440 N.pl3  48  ARG48       0.1354
     21  N         52.4210  -23.6910   28.3820 N.am   49  CYS49      -0.1954
     22  CA        51.0730  -23.1690   28.6420 C.3    49  CYS49       0.1843
     23  C         50.0430  -23.7050   27.6680 C.2    49  CYS49       0.2625
     24  O         50.3130  -23.8440   26.4920 O.2    49  CYS49      -0.2714
     25  CB        51.0740  -21.6440   28.5650 C.3    49  CYS49       0.0997
     26  SG        52.0390  -20.9590   29.8900 S.3    49  CYS49      -0.0797
     27  N         48.8470  -23.9930   28.1660 N.am   50  HIS50      -0.1973
     28  CA        47.7390  -24.5060   27.2990 C.3    50  HIS50       0.1656
     29  C         47.0140  -23.3950   26.5540 C.2    50  HIS50       0.2291
     30  O         46.0750  -22.7780   27.0770 O.2    50  HIS50      -0.2864
     31  CB        46.7400  -25.3180   28.1430 C.3    50  HIS50       0.0771
     32  CG        45.8760  -26.2530   27.3500 C.ar   50  HIS50       0.0820
     33  ND1       44.5500  -26.4750   27.6580 N.ar   50  HIS50      -0.2267
     34  CD2       46.1560  -27.0710   26.3000 C.ar   50  HIS50       0.1154
     35  CE1       44.0480  -27.3800   26.8360 C.ar   50  HIS50       0.1986
     36  NE2       44.9980  -27.7540   25.9970 N.ar   50  HIS50      -0.2212
     37  N         43.0800  -23.2060   26.1300 N.3    53  SER53      -0.1217
     38  CA        42.3110  -22.6540   27.2650 C.3    53  SER53       0.1889
     39  C         42.3800  -21.1240   27.2620 C.2    53  SER53       0.2288
     40  O         41.3900  -20.4620   27.4690 O.2    53  SER53      -0.2866
     41  CB        42.8660  -23.1870   28.6060 C.3    53  SER53       0.2089
     42  OG        42.5900  -24.5800   28.7270 O.3    53  SER53      -0.2183
     43  N         38.9910  -18.9090   26.4780 N.3    57  GLU57      -0.1245
     44  CA        38.4850  -18.1030   27.6010 C.3    57  GLU57       0.1567
     45  C         38.2330  -16.6510   27.1330 C.2    57  GLU57       0.2260
     46  O         37.2270  -16.0440   27.4880 O.2    57  GLU57      -0.2867
     47  CB        39.4220  -18.1300   28.7930 C.3    57  GLU57       0.0388
     48  CG        38.8390  -17.4660   30.0260 C.3    57  GLU57       0.1160
     49  CD        39.8250  -17.1880   31.1110 C.2    57  GLU57       0.3649
     50  OE1       40.9820  -16.7880   30.8030 O.co2  57  GLU57      -0.2457
     51  OE2       39.4040  -17.3230   32.2810 O.co2  57  GLU57      -0.2457
     52  N         38.2580  -26.6880   30.7270 N.3    77  THR77      -0.1203
     53  CA        37.6950  -27.0090   32.0430 C.3    77  THR77       0.1994
     54  C         38.2200  -26.1420   33.1810 C.2    77  THR77       0.2618
     55  O         37.9890  -26.4430   34.3460 O.2    77  THR77      -0.2717
     56  CB        37.9510  -28.4710   32.3910 C.3    77  THR77       0.1784
     57  OG1       39.3500  -28.6780   32.4810 O.3    77  THR77      -0.2211
     58  CG2       37.3350  -29.3850   31.3350 C.3    77  THR77       0.0376
     59  N         38.8600  -25.0300   32.8280 N.am   78  ILE78      -0.1965
     60  CA        39.5210  -24.1590   33.8190 C.3    78  ILE78       0.1727
     61  C         38.5780  -23.4180   34.7790 C.2    78  ILE78       0.2616
     62  O         39.0060  -22.9240   35.8210 O.2    78  ILE78      -0.2715
     63  CB        40.4810  -23.1370   33.1370 C.3    78  ILE78       0.0290
     64  CG1       39.7430  -22.1790   32.1920 C.3    78  ILE78       0.0022
     65  CG2       41.6390  -23.8660   32.4140 C.3    78  ILE78       0.0023
     66  CD1       40.5310  -20.8690   31.9000 C.3    78  ILE78       0.0001
     67  N         37.2990  -23.3510   34.4320 N.am   79  TRP79      -0.1974
     68  CA        36.2830  -22.6530   35.2450 C.3    79  TRP79       0.1640
     69  C         35.3230  -23.6080   35.9610 C.2    79  TRP79       0.2290
     70  O         34.4020  -23.1660   36.6190 O.2    79  TRP79      -0.2864
     71  CB        35.4830  -21.6460   34.4110 C.3    79  TRP79       0.0576
     72  CG        36.1630  -20.3040   34.3310 C.ar   79  TRP79       0.0006
     73  CD1       36.9020  -19.8190   33.2970 C.ar   79  TRP79       0.0946
     74  CD2       36.1700  -19.2870   35.3340 C.ar   79  TRP79       0.0152
     75  NE1       37.3660  -18.5670   33.5800 N.ar   79  TRP79      -0.2442
     76  CE2       36.9360  -18.2170   34.8330 C.ar   79  TRP79       0.0810
     77  CE3       35.6200  -19.1850   36.6190 C.ar   79  TRP79       0.0012
     78  CZ2       37.1420  -17.0510   35.5550 C.ar   79  TRP79       0.0191
     79  CZ3       35.8220  -18.0310   37.3450 C.ar   79  TRP79       0.0001
     80  CH2       36.5710  -16.9620   36.8070 C.ar   79  TRP79       0.0015
     81  N         34.1310  -23.4550   40.0300 N.3    82  TRP82      -0.1241
     82  CA        33.3810  -22.3360   40.6190 C.3    82  TRP82       0.1605
     83  C         31.9600  -22.2810   40.1270 C.2    82  TRP82       0.2264
     84  O         31.1580  -21.4910   40.6240 O.2    82  TRP82      -0.2867
     85  CB        34.1090  -21.0090   40.3380 C.3    82  TRP82       0.0550
     86  CG        35.4170  -21.0290   41.0100 C.ar   82  TRP82       0.0003
     87  CD1       35.6690  -20.7340   42.3340 C.ar   82  TRP82       0.0946
     88  CD2       36.6570  -21.4680   40.4590 C.ar   82  TRP82       0.0152
     89  NE1       36.9860  -20.9350   42.6190 N.ar   82  TRP82      -0.2442
     90  CE2       37.6250  -21.3730   41.4870 C.ar   82  TRP82       0.0810
     91  CE3       37.0540  -21.9070   39.2020 C.ar   82  TRP82       0.0012
     92  CZ2       38.9390  -21.7370   41.2960 C.ar   82  TRP82       0.0191
     93  CZ3       38.3670  -22.2530   39.0110 C.ar   82  TRP82       0.0001
     94  CH2       39.2910  -22.1780   40.0440 C.ar   82  TRP82       0.0015
     95  N         49.9560  -19.9950   38.5840 N.3   171  LEU171     -0.1231
     96  CA        48.9260  -20.5660   37.7430 C.3   171  LEU171      0.1693
     97  C         48.2770  -19.5320   36.8660 C.2   171  LEU171      0.2592
     98  O         48.1370  -19.7250   35.6540 O.2   171  LEU171     -0.2718
     99  CB        47.8570  -21.2820   38.5640 C.3   171  LEU171      0.0284
    100  CG        48.0990  -22.7230   38.9410 C.3   171  LEU171      0.0019
    101  CD1       46.8280  -23.2190   39.6180 C.3   171  LEU171      0.0001
    102  CD2       48.4900  -23.6310   37.7080 C.3   171  LEU171      0.0001
    103  N         47.8960  -18.4080   37.4840 N.am  172  GLY172     -0.1957
    104  CA        47.0540  -17.4060   36.8140 C.3   172  GLY172      0.1869
    105  C         47.8030  -16.4790   35.9100 C.2   172  GLY172      0.2309
    106  O         47.4340  -16.2540   34.7780 O.2   172  GLY172     -0.2863
    107  N         48.5400  -17.0970   32.1220 N.3   175  PHE175     -0.1227
    108  CA        47.2930  -16.9850   31.3460 C.3   175  PHE175      0.1736
    109  C         46.8590  -15.5430   31.1530 C.2   175  PHE175      0.2595
    110  O         46.5130  -15.1490   30.0480 O.2   175  PHE175     -0.2718
    111  CB        46.1250  -17.7490   31.9700 C.3   175  PHE175      0.0547
    112  CG        46.1090  -19.2200   31.6290 C.ar  175  PHE175     -0.0202
    113  CD1       47.2840  -19.9610   31.6170 C.ar  175  PHE175     -0.0042
    114  CD2       44.8930  -19.8680   31.3690 C.ar  175  PHE175     -0.0042
    115  CE1       47.2540  -21.3460   31.3420 C.ar  175  PHE175     -0.0003
    116  CE2       44.8550  -21.2220   31.0710 C.ar  175  PHE175     -0.0003
    117  CZ        46.0390  -21.9720   31.0820 C.ar  175  PHE175     -0.0000
    118  N         46.9120  -14.7520   32.2320 N.am  176  ASN176     -0.1974
    119  CA        46.4070  -13.3850   32.2060 C.3   176  ASN176      0.1688
    120  C         47.2380  -12.5040   31.2600 C.2   176  ASN176      0.2292
    121  O         46.6840  -11.6820   30.5200 O.2   176  ASN176     -0.2864
    122  CB        46.3910  -12.7700   33.6260 C.3   176  ASN176      0.1181
    123  CG        45.4530  -13.5430   34.6140 C.2   176  ASN176      0.2629
    124  OD1       45.8010  -13.7510   35.7730 O.2   176  ASN176     -0.2716
    125  ND2       44.2780  -13.9680   34.1250 N.am  176  ASN176     -0.0877
    126  N         54.3110  -28.0070   33.9940 N.3   257  ILE257     -0.1231
    127  CA        54.4620  -28.2800   35.4320 C.3   257  ILE257      0.1692
    128  C         53.1060  -28.2410   36.0810 C.2   257  ILE257      0.2592
    129  O         52.4420  -27.2030   36.0670 O.2   257  ILE257     -0.2718
    130  CB        55.4250  -27.2570   36.1510 C.3   257  ILE257      0.0266
    131  CG1       56.7690  -27.1810   35.4310 C.3   257  ILE257      0.0019
    132  CG2       55.6060  -27.6460   37.6380 C.3   257  ILE257      0.0020
    133  CD1       57.6270  -25.9980   35.7900 C.3   257  ILE257      0.0001
    134  N         52.7150  -29.3560   36.6610 N.am  258  LYS258     -0.1966
    135  CA        51.4180  -29.4580   37.2980 C.3   258  LYS258      0.1728
    136  C         51.4010  -28.8080   38.6750 C.2   258  LYS258      0.2616
    137  O         52.3430  -28.9380   39.4540 O.2   258  LYS258     -0.2715
    138  CB        50.9450  -30.9200   37.4290 C.3   258  LYS258      0.0311
    139  CG        50.0520  -31.3550   36.2780 C.3   258  LYS258      0.0038
    140  CD        50.7570  -31.2520   34.9130 C.3   258  LYS258      0.0206
    141  CE        51.6160  -32.5200   34.5440 C.3   258  LYS258      0.1093
    142  NZ        52.6480  -32.2410   33.4450 N.3   258  LYS258     -0.1314
    143  N         50.3050  -28.1180   38.9790 N.am  259  ALA259     -0.1977
    144  CA        50.1460  -27.5410   40.3170 C.3   259  ALA259      0.1597
    145  C         48.6850  -27.4570   40.6600 C.2   259  ALA259      0.2287
    146  O         47.8710  -27.2500   39.7810 O.2   259  ALA259     -0.2864
    147  CB        50.8250  -26.1620   40.3820 C.3   259  ALA259      0.0319
    148  N         45.1810  -26.0590   42.0930 N.3   261  VAL261     -0.1245
    149  CA        44.5060  -24.7680   42.1870 C.3   261  VAL261      0.1561
    150  C         43.8750  -24.6660   43.5920 C.2   261  VAL261      0.2260
    151  O         43.3020  -25.6020   44.1020 O.2   261  VAL261     -0.2867
    152  CB        43.4570  -24.5400   41.0250 C.3   261  VAL261      0.0252
    153  CG1       42.2980  -25.4750   41.1350 C.3   261  VAL261      0.0019
    154  CG2       42.9280  -23.1310   41.0580 C.3   261  VAL261      0.0019
@<TRIPOS>BOND
     1    20    18    1
     2    19    18    1
     3    18    17    2
     4    17    16    1
     5    36    34   ar
     6    36    35   ar
     7    37    38    1
     8    16    15    1
     9    34    32   ar
    10    43    44    1
    11    24    23    2
    12    29    30    2
    13    29    28    1
    14    35    33   ar
    15    15    14    1
    16    45    46    2
    17    45    44    1
    18    39    38    1
    19    39    40    2
    20    38    41    1
    21    28    31    1
    22    28    27    1
    23    32    33   ar
    24    32    31    1
    25    44    47    1
    26    23    27   am
    27    23    22    1
    28    14    11    1
    29    21    22    1
    30    21    12   am
    31    25    22    1
    32    25    26    1
    33    11    12    1
    34    11    10    1
    35    41    42    1
    36    47    48    1
    37    12    13    2
    38     4     3    2
    39    10     3   am
    40    48    49    1
    41   110   109    2
    42     3     2    1
    43   121   120    2
    44    52    53    1
    45    50    49   ar
    46   116   117   ar
    47   116   114   ar
    48   117   115   ar
    49    49    51   ar
    50     1     2    1
    51   109   108    1
    52   109   118   am
    53     2     5    1
    54   120   119    1
    55    58    56    1
    56   115   113   ar
    57   108   111    1
    58   108   107    1
    59   114   112   ar
    60   113   112   ar
    61   112   111    1
    62    66    64    1
    63    53    56    1
    64    53    54    1
    65    64    63    1
    66   119   118    1
    67   119   122    1
    68    56    57    1
    69    65    63    1
    70     5     6    1
    71     6     7    1
    72    59    54   am
    73    59    60    1
    74    63    60    1
    75    54    55    2
    76    73    75   ar
    77    73    72   ar
    78   142   141    1
    79    75    76   ar
    80   122   123    1
    81    60    61    1
    82     8     7    1
    83     8     9    1
    84   126   127    1
    85   125   123   am
    86    72    71    1
    87    72    74   ar
    88    71    68    1
    89    67    61   am
    90    67    68    1
    91   141   140    1
    92   123   124    2
    93   106   105    2
    94    61    62    2
    95    76    74   ar
    96    76    78   ar
    97   140   139    1
    98    68    69    1
    99    74    77   ar
   100   131   133    1
   101   131   130    1
   102   127   128    1
   103   127   130    1
   104    78    80   ar
   105    98    97    2
   106   105   104    1
   107    69    70    2
   108   129   128    2
   109   128   134   am
   110   130   132    1
   111   139   138    1
   112    77    79   ar
   113   134   135    1
   114    80    79   ar
   115   104   103    1
   116    97   103   am
   117    97    96    1
   118   135   138    1
   119   135   136    1
   120   102   100    1
   121    96    99    1
   122    96    95    1
   123    99   100    1
   124   136   143   am
   125   136   137    2
   126   100   101    1
   127   143   144    1
   128    93    91   ar
   129    93    94   ar
   130    91    88   ar
   131   146   145    2
   132    81    82    1
   133    94    92   ar
   134    83    82    1
   135    83    84    2
   136   144   147    1
   137   144   145    1
   138    85    82    1
   139    85    86    1
   140    88    86   ar
   141    88    90   ar
   142    86    87   ar
   143   152   154    1
   144   152   153    1
   145   152   149    1
   146    92    90   ar
   147    90    89   ar
   148   148   149    1
   149   149   150    1
   150    87    89   ar
   151   150   151    2
