@<TRIPOS>MOLECULE
tmp/3bhuA00.pdb
 172 162 0 0 0
SMALL
GASTEIGER

@<TRIPOS>ATOM
      1  N         -2.5470   20.4300  -28.6950 N.3    12  ILE12      -0.1231
      2  CA        -2.7500   21.7230  -28.0310 C.3    12  ILE12       0.1692
      3  C         -2.2890   21.7310  -26.5690 C.2    12  ILE12       0.2593
      4  O         -2.4000   22.7440  -25.8720 O.2    12  ILE12      -0.2718
      5  CB        -4.2210   22.2300  -28.1430 C.3    12  ILE12       0.0266
      6  CG1       -5.2190   21.1470  -27.7080 C.3    12  ILE12       0.0019
      7  CG2       -4.5010   22.7330  -29.5570 C.3    12  ILE12       0.0020
      8  CD1       -6.6580   21.6170  -27.5750 C.3    12  ILE12       0.0001
      9  N         -1.7560   20.6030  -26.1150 N.am   13  GLY13      -0.1942
     10  CA        -1.3540   20.4690  -24.7230 C.3    13  GLY13       0.2014
     11  C         -0.9110   19.0700  -24.3710 C.2    13  GLY13       0.2638
     12  O         -1.1540   18.1170  -25.1090 O.2    13  GLY13      -0.2714
     13  N         -0.2560   18.9570  -23.2260 N.am   14  GLU14      -0.1977
     14  CA         0.2730   17.6900  -22.7510 C.3    14  GLU14       0.1602
     15  C          0.5390   17.7610  -21.2500 C.2    14  GLU14       0.2287
     16  O          0.5240   18.8390  -20.6520 O.2    14  GLU14      -0.2864
     17  CB         1.5630   17.3380  -23.4970 C.3    14  GLU14       0.0415
     18  CG         1.9610   15.8850  -23.3800 C.3    14  GLU14       0.1163
     19  CD         3.4560   15.7140  -23.2700 C.2    14  GLU14       0.3649
     20  OE1        4.1520   15.8600  -24.3000 O.co2  14  GLU14      -0.2457
     21  OE2        3.9340   15.4300  -22.1460 O.co2  14  GLU14      -0.2457
     22  N         -2.5480   13.0300  -16.9090 N.3    17  TYR17      -0.1241
     23  CA        -2.7590   12.4860  -18.2810 C.3    17  TYR17       0.1605
     24  C         -1.6870   11.5310  -18.9310 C.2    17  TYR17       0.2264
     25  O         -1.0450   10.7680  -18.2040 O.2    17  TYR17      -0.2867
     26  CB        -3.4530   13.4960  -19.2400 C.3    17  TYR17       0.0534
     27  CG        -3.0580   14.9700  -19.2030 C.ar   17  TYR17      -0.0201
     28  CD1       -2.9280   15.6700  -17.9990 C.ar   17  TYR17      -0.0009
     29  CD2       -2.8950   15.6860  -20.3980 C.ar   17  TYR17      -0.0009
     30  CE1       -2.5850   17.0210  -17.9850 C.ar   17  TYR17       0.0417
     31  CE2       -2.5610   17.0400  -20.3950 C.ar   17  TYR17       0.0417
     32  CZ        -2.4050   17.7010  -19.1860 C.ar   17  TYR17       0.1957
     33  OH        -2.0710   19.0440  -19.1750 O.3    17  TYR17      -0.2866
     34  N         -3.3490   16.1590  -25.0360 N.3    20  VAL20      -0.1245
     35  CA        -4.5720   16.8300  -25.4900 C.3    20  VAL20       0.1561
     36  C         -4.4640   17.2370  -26.9540 C.2    20  VAL20       0.2260
     37  O         -3.4750   17.8500  -27.3600 O.2    20  VAL20      -0.2867
     38  CB        -4.9390   18.0770  -24.6370 C.3    20  VAL20       0.0252
     39  CG1       -6.3720   18.5110  -24.9290 C.3    20  VAL20       0.0019
     40  CG2       -4.7750   17.7900  -23.1620 C.3    20  VAL20       0.0019
     41  N        -11.8020   19.1210  -27.5820 N.3    33  ALA33      -0.1245
     42  CA       -10.4850   18.7510  -27.0920 C.3    33  ALA33       0.1562
     43  C        -10.5400   17.2800  -26.7220 C.2    33  ALA33       0.2260
     44  O        -11.4370   16.8510  -25.9980 O.2    33  ALA33      -0.2867
     45  CB       -10.0990   19.5940  -25.8850 C.3    33  ALA33       0.0290
     46  N         -8.7100   14.4500  -24.7440 N.3    35  LYS35      -0.1245
     47  CA        -7.7090   14.0560  -23.7690 C.3    35  LYS35       0.1561
     48  C         -7.4600   12.5590  -23.9200 C.2    35  LYS35       0.2260
     49  O         -8.2880   11.7290  -23.5490 O.2    35  LYS35      -0.2867
     50  CB        -8.1590   14.4050  -22.3490 C.3    35  LYS35       0.0271
     51  CG        -7.0250   14.5460  -21.3570 C.3    35  LYS35       0.0035
     52  CD        -7.5580   14.8510  -19.9690 C.3    35  LYS35       0.0206
     53  CE        -6.4470   15.2240  -19.0110 C.3    35  LYS35       0.1093
     54  NZ        -6.9680   15.7270  -17.7100 N.3    35  LYS35      -0.1314
     55  N        -11.2780   11.7500  -12.5560 N.3    51  GLU51      -0.1245
     56  CA       -11.6480   12.8570  -13.4440 C.3    51  GLU51       0.1567
     57  C        -12.9600   12.5940  -14.2010 C.2    51  GLU51       0.2260
     58  O        -13.8040   13.4740  -14.3000 O.2    51  GLU51      -0.2867
     59  CB       -10.5170   13.2430  -14.4220 C.3    51  GLU51       0.0388
     60  CG       -10.9740   14.3060  -15.4230 C.3    51  GLU51       0.1160
     61  CD        -9.8560   15.0350  -16.1060 C.2    51  GLU51       0.3649
     62  OE1       -9.0230   14.3680  -16.7410 O.co2  51  GLU51      -0.2457
     63  OE2       -9.8240   16.2850  -16.0280 O.co2  51  GLU51      -0.2457
     64  N        -16.3230   14.7870  -13.3710 N.3    55  LEU55      -0.1245
     65  CA       -16.7080   15.6610  -14.4450 C.3    55  LEU55       0.1561
     66  C        -18.0410   15.2520  -15.1040 C.2    55  LEU55       0.2260
     67  O        -18.6850   16.0370  -15.6550 O.2    55  LEU55      -0.2867
     68  CB       -15.5870   15.9170  -15.4270 C.3    55  LEU55       0.0270
     69  CG       -14.5190   16.8810  -14.9610 C.3    55  LEU55       0.0019
     70  CD1      -13.4420   17.0290  -15.9500 C.3    55  LEU55       0.0001
     71  CD2      -15.0250   18.2040  -14.5480 C.3    55  LEU55       0.0001
     72  N        -15.1680   22.9820  -17.1510 N.3    64  VAL64      -0.1245
     73  CA       -15.0100   22.2970  -18.3950 C.3    64  VAL64       0.1561
     74  C        -15.9200   21.0960  -18.5670 C.2    64  VAL64       0.2260
     75  O        -16.0250   20.2290  -17.7570 O.2    64  VAL64      -0.2867
     76  CB       -13.5470   22.0670  -18.7590 C.3    64  VAL64       0.0252
     77  CG1      -13.0430   20.8000  -18.2390 C.3    64  VAL64       0.0019
     78  CG2      -13.3560   22.1860  -20.2040 C.3    64  VAL64       0.0019
     79  N        -13.9030   16.7290  -24.6450 N.3    80  PHE80      -0.1227
     80  CA       -14.2620   17.9470  -23.9230 C.3    80  PHE80       0.1736
     81  C        -14.6630   19.0320  -24.9080 C.2    80  PHE80       0.2595
     82  O        -14.2860   18.9820  -26.0730 O.2    80  PHE80      -0.2718
     83  CB       -13.0640   18.4890  -23.1350 C.3    80  PHE80       0.0547
     84  CG       -12.7000   17.6920  -21.9320 C.ar   80  PHE80      -0.0202
     85  CD1      -13.4300   17.8170  -20.7460 C.ar   80  PHE80      -0.0042
     86  CD2      -11.5940   16.8570  -21.9510 C.ar   80  PHE80      -0.0042
     87  CE1      -13.0830   17.0890  -19.6170 C.ar   80  PHE80      -0.0003
     88  CE2      -11.2310   16.1290  -20.8050 C.ar   80  PHE80      -0.0003
     89  CZ       -11.9820   16.2420  -19.6530 C.ar   80  PHE80      -0.0000
     90  N        -15.3940   20.0340  -24.4250 N.am   81  GLU81      -0.1965
     91  CA       -15.5650   21.2740  -25.1840 C.3    81  GLU81       0.1733
     92  C        -14.1950   21.9200  -25.4030 C.2    81  GLU81       0.2616
     93  O        -13.3310   21.8540  -24.5360 O.2    81  GLU81      -0.2715
     94  CB       -16.4720   22.2450  -24.4270 C.3    81  GLU81       0.0429
     95  CG       -15.9500   22.6150  -23.0370 C.3    81  GLU81       0.1163
     96  CD       -16.7530   23.7050  -22.3590 C.2    81  GLU81       0.3649
     97  OE1      -17.1420   24.6800  -23.0370 O.co2  81  GLU81      -0.2457
     98  OE2      -16.9790   23.6020  -21.1390 O.co2  81  GLU81      -0.2457
     99  N        -13.9970   22.5440  -26.5560 N.am   82  PHE82      -0.1960
    100  CA       -12.7320   23.2180  -26.8330 C.3    82  PHE82       0.1771
    101  C        -12.7490   24.6570  -26.3050 C.2    82  PHE82       0.2619
    102  O        -13.7060   25.3930  -26.5230 O.2    82  PHE82      -0.2715
    103  CB       -12.4310   23.1680  -28.3320 C.3    82  PHE82       0.0574
    104  CG       -11.2290   23.9790  -28.7540 C.ar   82  PHE82      -0.0200
    105  CD1       -9.9440   23.4690  -28.6180 C.ar   82  PHE82      -0.0042
    106  CD2      -11.3930   25.2500  -29.3160 C.ar   82  PHE82      -0.0042
    107  CE1       -8.8290   24.2190  -29.0110 C.ar   82  PHE82      -0.0003
    108  CE2      -10.2910   26.0060  -29.7150 C.ar   82  PHE82      -0.0003
    109  CZ        -9.0060   25.4890  -29.5590 C.ar   82  PHE82      -0.0000
    110  N        -11.6880   25.0370  -25.5980 N.am   83  LEU83      -0.1977
    111  CA       -11.4500   26.4360  -25.2310 C.3    83  LEU83       0.1596
    112  C        -10.1300   26.9050  -25.8270 C.2    83  LEU83       0.2287
    113  O         -9.1730   26.1440  -25.9050 O.2    83  LEU83      -0.2864
    114  CB       -11.4930   26.6410  -23.7110 C.3    83  LEU83       0.0297
    115  CG       -12.9150   26.5010  -23.1530 C.3    83  LEU83       0.0022
    116  CD1      -13.0880   25.1650  -22.4550 C.3    83  LEU83       0.0001
    117  CD2      -13.2630   27.6490  -22.2230 C.3    83  LEU83       0.0001
    118  N         -7.6580   29.1970  -25.2150 N.3    85  GLN85      -0.1231
    119  CA        -6.4090   29.5590  -24.5650 C.3    85  GLN85       0.1698
    120  C         -6.4860   29.2670  -23.0710 C.2    85  GLN85       0.2592
    121  O         -7.5710   29.1890  -22.5120 O.2    85  GLN85      -0.2718
    122  CB        -6.1410   31.0430  -24.8090 C.3    85  GLN85       0.0381
    123  CG        -4.7650   31.4940  -24.4130 C.3    85  GLN85       0.0905
    124  CD        -4.2350   32.5500  -25.3320 C.2    85  GLN85       0.2608
    125  OE1       -4.5350   33.7360  -25.1760 O.2    85  GLN85      -0.2717
    126  NE2       -3.4340   32.1310  -26.3090 N.am   85  GLN85      -0.0878
    127  N         -5.3350   29.0920  -22.4350 N.am   86  ASP86      -0.1974
    128  CA        -5.2720   29.0810  -20.9790 C.3    86  ASP86       0.1709
    129  C         -4.9040   30.4670  -20.4490 C.2    86  ASP86       0.2293
    130  O         -4.3380   31.2950  -21.1700 O.2    86  ASP86      -0.2864
    131  CB        -4.3140   28.0010  -20.4620 C.3    86  ASP86       0.1436
    132  CG        -2.8940   28.2180  -20.9010 C.2    86  ASP86       0.3671
    133  OD1       -2.1720   29.0100  -20.2730 O.co2  86  ASP86      -0.2456
    134  OD2       -2.4860   27.5760  -21.8860 O.co2  86  ASP86      -0.2456
    135  N         -2.5400   27.6640  -15.8140 N.3   131  GLN131     -0.1231
    136  CA        -2.4710   26.6520  -16.8720 C.3   131  GLN131      0.1698
    137  C         -3.7210   25.7720  -16.9550 C.2   131  GLN131      0.2592
    138  O         -4.0460   25.2630  -18.0280 O.2   131  GLN131     -0.2718
    139  CB        -1.2380   25.7640  -16.6970 C.3   131  GLN131      0.0381
    140  CG         0.1000   26.4590  -16.9900 C.3   131  GLN131      0.0905
    141  CD         0.6600   27.2340  -15.7880 C.2   131  GLN131      0.2608
    142  OE1        0.0440   27.3060  -14.7150 O.2   131  GLN131     -0.2717
    143  NE2        1.8330   27.8260  -15.9780 N.am  131  GLN131     -0.0878
    144  N         -4.4090   25.5900  -15.8270 N.am  132  ASN132     -0.1974
    145  CA        -5.6180   24.7610  -15.7720 C.3   132  ASN132      0.1688
    146  C         -6.9070   25.5850  -15.8570 C.2   132  ASN132      0.2292
    147  O         -8.0000   25.0720  -15.6290 O.2   132  ASN132     -0.2864
    148  CB        -5.6190   23.8870  -14.5080 C.3   132  ASN132      0.1181
    149  CG        -4.5910   22.7690  -14.5650 C.2   132  ASN132      0.2629
    150  OD1       -4.0360   22.4790  -15.6180 O.2   132  ASN132     -0.2716
    151  ND2       -4.3400   22.1330  -13.4310 N.am  132  ASN132     -0.0877
    152  N         -9.1120   27.8130  -18.3820 N.3   134  LEU134     -0.1245
    153  CA        -9.2180   27.9710  -19.8290 C.3   134  LEU134      0.1561
    154  C        -10.2320   29.0410  -20.2200 C.2   134  LEU134      0.2260
    155  O        -11.2920   29.1640  -19.6010 O.2   134  LEU134     -0.2867
    156  CB        -9.5410   26.6260  -20.4880 C.3   134  LEU134      0.0270
    157  CG        -8.5880   25.4600  -20.1670 C.3   134  LEU134      0.0019
    158  CD1       -9.0420   24.1970  -20.8670 C.3   134  LEU134      0.0001
    159  CD2       -7.1430   25.7610  -20.5330 C.3   134  LEU134      0.0001
    160  N        -10.4260   23.4890  -15.4360 N.3   144  ALA144     -0.1231
    161  CA       -10.1610   22.2770  -16.1940 C.3   144  ALA144      0.1694
    162  C         -9.1180   21.4190  -15.4770 C.2   144  ALA144      0.2592
    163  O         -8.5040   21.8560  -14.4900 O.2   144  ALA144     -0.2718
    164  CB        -9.7240   22.6130  -17.6130 C.3   144  ALA144      0.0304
    165  N         -8.9370   20.2010  -15.9840 N.am  145  ASP145     -0.1974
    166  CA        -8.0410   19.1900  -15.3990 C.3   145  ASP145      0.1709
    167  C         -8.3930   18.7930  -13.9550 C.2   145  ASP145      0.2293
    168  O         -7.9120   19.3920  -12.9940 O.2   145  ASP145     -0.2864
    169  CB        -6.5640   19.5900  -15.5450 C.3   145  ASP145      0.1436
    170  CG        -5.6180   18.3980  -15.4400 C.2   145  ASP145      0.3671
    171  OD1       -6.0250   17.3270  -14.9300 O.co2 145  ASP145     -0.2456
    172  OD2       -4.4480   18.5350  -15.8670 O.co2 145  ASP145     -0.2456
@<TRIPOS>BOND
     1   108   109   ar
     2   108   106   ar
     3   109   107   ar
     4     7     5    1
     5   106   104   ar
     6   107   105   ar
     7   104   105   ar
     8   104   103    1
     9     1     2    1
    10   103   100    1
    11     5     2    1
    12     5     6    1
    13     2     3    1
    14     6     8    1
    15    41    42    1
    16    37    36    2
    17    42    43    1
    18    42    45    1
    19    36    35    1
    20   100    99    1
    21   100   101    1
    22    43    44    2
    23     3     9   am
    24     3     4    2
    25    99    92   am
    26   102   101    2
    27   126   124   am
    28   101   110   am
    29     9    10    1
    30    82    81    2
    31   113   112    2
    32   112   111    1
    33   110   111    1
    34    35    34    1
    35    35    38    1
    36    92    91    1
    37    92    93    2
    38   124   125    2
    39   124   123    1
    40   111   114    1
    41   118   119    1
    42    91    94    1
    43    91    90    1
    44    12    11    2
    45    39    38    1
    46    81    90   am
    47    81    80    1
    48   122   119    1
    49   122   123    1
    50    46    47    1
    51    10    11    1
    52    79    80    1
    53    38    40    1
    54   119   120    1
    55    94    95    1
    56    11    13   am
    57    20    19   ar
    58    80    83    1
    59    48    47    1
    60    48    49    2
    61    47    50    1
    62   114   115    1
    63    17    18    1
    64    17    14    1
    65    18    19    1
    66    19    21   ar
    67    13    14    1
    68   115   116    1
    69   115   117    1
    70    83    84    1
    71   120   121    2
    72   120   127   am
    73    97    96   ar
    74    95    96    1
    75    14    15    1
    76   127   128    1
    77    96    98   ar
    78    50    51    1
    79    86    84   ar
    80    86    88   ar
    81    84    85   ar
    82   134   132   ar
    83    51    52    1
    84    15    16    2
    85   130   129    2
    86   128   131    1
    87   128   129    1
    88   132   131    1
    89   132   133   ar
    90   158   157    1
    91    88    89   ar
    92    85    87   ar
    93   159   157    1
    94   156   157    1
    95   156   153    1
    96    29    31   ar
    97    29    27   ar
    98    31    32   ar
    99   154   153    1
   100   154   155    2
   101    78    76    1
   102    52    53    1
   103   153   152    1
   104    89    87   ar
   105    26    27    1
   106    26    23    1
   107    27    28   ar
   108    32    33    1
   109    32    30   ar
   110    53    54    1
   111    24    23    1
   112    24    25    2
   113    76    73    1
   114    76    77    1
   115    74    73    1
   116    74    75    2
   117    73    72    1
   118    23    22    1
   119   138   137    2
   120    28    30   ar
   121   164   161    1
   122   140   139    1
   123   140   141    1
   124   137   136    1
   125   137   144   am
   126   136   139    1
   127   136   135    1
   128    62    61   ar
   129   161   162    1
   130   161   160    1
   131    61    63   ar
   132    61    60    1
   133   165   162   am
   134   165   166    1
   135   143   141   am
   136    70    69    1
   137   172   170   ar
   138   146   145    1
   139   146   147    2
   140   144   145    1
   141   141   142    2
   142   145   148    1
   143    67    66    2
   144   150   149    2
   145   169   170    1
   146   169   166    1
   147   162   163    2
   148   170   171   ar
   149    68    69    1
   150    68    65    1
   151    60    59    1
   152   166   167    1
   153    66    65    1
   154    69    71    1
   155   149   148    1
   156   149   151   am
   157    65    64    1
   158    59    56    1
   159    58    57    2
   160    57    56    1
   161   167   168    2
   162    56    55    1
