@<TRIPOS>MOLECULE
tmp/3bhvA00.pdb
 173 162 0 0 0
SMALL
GASTEIGER

@<TRIPOS>ATOM
      1  N         -2.4470   20.0350  -29.1140 N.3    12  ILE12      -0.1231
      2  CA        -2.4930   21.2630  -28.3250 C.3    12  ILE12       0.1696
      3  C         -1.8330   21.1800  -26.9430 C.2    12  ILE12       0.2632
      4  O         -1.6070   22.2060  -26.3090 O.2    12  ILE12      -0.2714
      5  CB        -3.9380   21.8400  -28.2010 C.3    12  ILE12       0.0266
      6  CG1       -4.9150   20.8070  -27.6110 C.3    12  ILE12       0.0019
      7  CG2       -4.4140   22.3600  -29.5560 C.3    12  ILE12       0.0020
      8  CD1       -6.3650   21.3110  -27.4450 C.3    12  ILE12       0.0001
      9  N         -1.5210   19.9740  -26.4760 N.am   13  GLY13      -0.1718
     10  CA        -0.8820   19.8240  -25.1670 C.2    13  GLY13       0.1480
     11  C         -0.5210   18.4230  -24.7180 C.2    13  GLY13       0.2820
     12  O         -0.7090   17.4550  -25.4480 O.2    13  GLY13      -0.2669
     13  N         -0.0500   18.3430  -23.4750 N.am   14  GLU14      -0.1929
     14  CA         0.6090   17.1760  -22.8720 C.3    14  GLU14       0.1736
     15  C          0.8860   17.5980  -21.4070 C.2    14  GLU14       0.2617
     16  O          1.1150   18.7870  -21.1610 O.2    14  GLU14      -0.2715
     17  CB         1.9240   16.9420  -23.6190 C.3    14  GLU14       0.0429
     18  CG         2.6360   15.6480  -23.3320 C.3    14  GLU14       0.1163
     19  CD         4.0160   15.6300  -23.9410 C.2    14  GLU14       0.3649
     20  OE1        4.0990   15.6160  -25.1930 O.co2  14  GLU14      -0.2457
     21  OE2        5.0120   15.6350  -23.1670 O.co2  14  GLU14      -0.2457
     22  N          0.7920   16.6770  -20.4430 N.am   15  GLY15      -0.1955
     23  CA         0.2950   15.3100  -20.6430 C.3    15  GLY15       0.1869
     24  C          1.0510   14.2410  -19.8630 C.2    15  GLY15       0.2309
     25  O          2.0060   13.6580  -20.3750 O.2    15  GLY15      -0.2863
     26  N         -3.1610   15.8680  -25.5530 N.3    20  VAL20      -0.1245
     27  CA        -4.4130   16.5660  -25.8870 C.3    20  VAL20       0.1561
     28  C         -4.3830   17.1090  -27.3120 C.2    20  VAL20       0.2260
     29  O         -3.4460   17.8170  -27.6970 O.2    20  VAL20      -0.2867
     30  CB        -4.7710   17.6890  -24.8730 C.3    20  VAL20       0.0252
     31  CG1       -6.1540   18.2560  -25.1600 C.3    20  VAL20       0.0019
     32  CG2       -4.7180   17.1550  -23.4360 C.3    20  VAL20       0.0019
     33  N        -11.7570   19.1680  -27.5270 N.3    33  ALA33      -0.1245
     34  CA       -10.4430   18.7380  -27.1060 C.3    33  ALA33       0.1562
     35  C        -10.5200   17.2630  -26.7440 C.2    33  ALA33       0.2260
     36  O        -11.3810   16.8520  -25.9670 O.2    33  ALA33      -0.2867
     37  CB        -9.9350   19.5730  -25.9200 C.3    33  ALA33       0.0290
     38  N         -8.5560   14.3120  -25.0060 N.3    35  LYS35      -0.1245
     39  CA        -7.5040   13.9450  -24.0770 C.3    35  LYS35       0.1561
     40  C         -7.3380   12.4260  -24.1350 C.2    35  LYS35       0.2260
     41  O         -8.2240   11.6620  -23.7450 O.2    35  LYS35      -0.2867
     42  CB        -7.8580   14.4560  -22.6750 C.3    35  LYS35       0.0271
     43  CG        -6.8370   14.1890  -21.5820 C.3    35  LYS35       0.0035
     44  CD        -7.1650   15.0600  -20.3750 C.3    35  LYS35       0.0206
     45  CE        -6.2290   14.7810  -19.2280 C.3    35  LYS35       0.1093
     46  NZ        -6.4660   15.7450  -18.1320 N.3    35  LYS35      -0.1314
     47  N        -10.8280   11.7570  -12.6660 N.3    51  GLU51      -0.1245
     48  CA       -11.1830   12.8750  -13.5600 C.3    51  GLU51       0.1567
     49  C        -12.5310   12.6330  -14.2320 C.2    51  GLU51       0.2260
     50  O        -13.3860   13.5270  -14.2880 O.2    51  GLU51      -0.2867
     51  CB       -10.0910   13.1410  -14.6120 C.3    51  GLU51       0.0388
     52  CG       -10.5010   14.1800  -15.6450 C.3    51  GLU51       0.1160
     53  CD        -9.3530   14.7830  -16.3850 C.2    51  GLU51       0.3649
     54  OE1       -8.4650   14.0240  -16.8020 O.co2  51  GLU51      -0.2457
     55  OE2       -9.3420   16.0290  -16.5600 O.co2  51  GLU51      -0.2457
     56  N        -16.0140   14.5210  -13.1160 N.3    55  LEU55      -0.1245
     57  CA       -16.5330   15.4410  -14.1170 C.3    55  LEU55       0.1561
     58  C        -17.9390   15.0590  -14.6520 C.2    55  LEU55       0.2260
     59  O        -18.6520   15.9140  -15.1600 O.2    55  LEU55      -0.2867
     60  CB       -15.5350   15.5850  -15.2650 C.3    55  LEU55       0.0270
     61  CG       -14.7880   16.9050  -15.5350 C.3    55  LEU55       0.0019
     62  CD1      -14.9720   18.0430  -14.5080 C.3    55  LEU55       0.0001
     63  CD2      -13.3390   16.6390  -15.8140 C.3    55  LEU55       0.0001
     64  N        -14.9750   22.9410  -17.2950 N.3    64  VAL64      -0.1245
     65  CA       -14.8770   22.3590  -18.6360 C.3    64  VAL64       0.1561
     66  C        -15.7700   21.1200  -18.7220 C.2    64  VAL64       0.2260
     67  O        -15.7570   20.2570  -17.8210 O.2    64  VAL64      -0.2867
     68  CB       -13.4180   22.0720  -19.0680 C.3    64  VAL64       0.0252
     69  CG1      -13.3700   21.5330  -20.4840 C.3    64  VAL64       0.0019
     70  CG2      -12.5770   23.3480  -19.0130 C.3    64  VAL64       0.0019
     71  N        -13.7650   16.6710  -24.5270 N.3    80  PHE80      -0.1227
     72  CA       -14.1290   17.8800  -23.8040 C.3    80  PHE80       0.1736
     73  C        -14.5840   18.9440  -24.8000 C.2    80  PHE80       0.2595
     74  O        -14.1510   18.9360  -25.9460 O.2    80  PHE80      -0.2718
     75  CB       -12.9050   18.4260  -23.0520 C.3    80  PHE80       0.0547
     76  CG       -12.4820   17.5970  -21.8710 C.ar   80  PHE80      -0.0202
     77  CD1      -13.1980   17.6490  -20.6740 C.ar   80  PHE80      -0.0042
     78  CD2      -11.3520   16.7910  -21.9400 C.ar   80  PHE80      -0.0042
     79  CE1      -12.8130   16.8850  -19.5720 C.ar   80  PHE80      -0.0003
     80  CE2      -10.9510   16.0300  -20.8330 C.ar   80  PHE80      -0.0003
     81  CZ       -11.6890   16.0790  -19.6500 C.ar   80  PHE80      -0.0000
     82  N        -15.4360   19.8690  -24.3660 N.am   81  GLU81      -0.1965
     83  CA       -15.6500   21.1050  -25.1110 C.3    81  GLU81       0.1733
     84  C        -14.2980   21.7940  -25.3640 C.2    81  GLU81       0.2616
     85  O        -13.4220   21.7740  -24.4900 O.2    81  GLU81      -0.2715
     86  CB       -16.5600   22.0500  -24.3150 C.3    81  GLU81       0.0429
     87  CG       -15.9790   22.5230  -22.9570 C.3    81  GLU81       0.1163
     88  CD       -16.8520   23.5690  -22.2470 C.2    81  GLU81       0.3649
     89  OE1      -17.1820   24.6000  -22.8740 O.co2  81  GLU81      -0.2457
     90  OE2      -17.2050   23.3500  -21.0580 O.co2  81  GLU81      -0.2457
     91  N        -14.1260   22.4080  -26.5390 N.am   82  PHE82      -0.1960
     92  CA       -12.8700   23.0930  -26.8550 C.3    82  PHE82       0.1771
     93  C        -12.8250   24.5090  -26.2820 C.2    82  PHE82       0.2619
     94  O        -13.7580   25.2970  -26.4410 O.2    82  PHE82      -0.2715
     95  CB       -12.5960   23.1160  -28.3670 C.3    82  PHE82       0.0574
     96  CG       -11.3090   23.8650  -28.7590 C.ar   82  PHE82      -0.0200
     97  CD1      -10.0610   23.2720  -28.5980 C.ar   82  PHE82      -0.0042
     98  CD2      -11.3700   25.1510  -29.3070 C.ar   82  PHE82      -0.0042
     99  CE1       -8.8700   23.9520  -28.9530 C.ar   82  PHE82      -0.0003
    100  CE2      -10.1860   25.8490  -29.6790 C.ar   82  PHE82      -0.0003
    101  CZ        -8.9370   25.2490  -29.4900 C.ar   82  PHE82      -0.0000
    102  N        -11.7190   24.8260  -25.6240 N.am   83  LEU83      -0.1977
    103  CA       -11.4570   26.1870  -25.1820 C.3    83  LEU83       0.1596
    104  C        -10.1410   26.6500  -25.8000 C.2    83  LEU83       0.2287
    105  O         -9.2280   25.8570  -25.9580 O.2    83  LEU83      -0.2864
    106  CB       -11.4360   26.2560  -23.6480 C.3    83  LEU83       0.0297
    107  CG       -12.8840   26.1820  -23.1350 C.3    83  LEU83       0.0022
    108  CD1      -13.0850   25.0560  -22.1960 C.3    83  LEU83       0.0001
    109  CD2      -13.3440   27.5250  -22.5510 C.3    83  LEU83       0.0001
    110  N         -7.6040   29.0340  -25.1650 N.3    85  GLN85      -0.1231
    111  CA        -6.3150   29.0180  -24.4950 C.3    85  GLN85       0.1698
    112  C         -6.4070   29.0090  -22.9870 C.2    85  GLN85       0.2592
    113  O         -7.4980   29.0450  -22.4310 O.2    85  GLN85      -0.2718
    114  CB        -5.4010   30.1320  -25.0130 C.3    85  GLN85       0.0381
    115  CG        -5.7300   31.5200  -24.6370 C.3    85  GLN85       0.0905
    116  CD        -4.5910   32.4730  -24.9970 C.2    85  GLN85       0.2608
    117  OE1       -4.5980   33.6390  -24.6090 O.2    85  GLN85      -0.2717
    118  NE2       -3.6060   31.9750  -25.7440 N.am   85  GLN85      -0.0878
    119  N         -5.2490   28.9000  -22.3480 N.am   86  ASP86      -0.1974
    120  CA        -5.1630   28.8990  -20.9030 C.3    86  ASP86       0.1709
    121  C         -4.7990   30.2860  -20.4020 C.2    86  ASP86       0.2293
    122  O         -4.2550   31.1030  -21.1460 O.2    86  ASP86      -0.2864
    123  CB        -4.2390   27.7790  -20.3740 C.3    86  ASP86       0.1436
    124  CG        -2.7550   27.9870  -20.7000 C.2    86  ASP86       0.3671
    125  OD1       -2.1410   28.9500  -20.2240 O.co2  86  ASP86      -0.2456
    126  OD2       -2.1750   27.1190  -21.3860 O.co2  86  ASP86      -0.2456
    127  N         -1.0620   31.6080  -20.7900 N.3    89  LYS89      -0.1245
    128  CA        -0.7390   32.1250  -22.1300 C.3    89  LYS89       0.1561
    129  C         -1.4260   33.4610  -22.4000 C.2    89  LYS89       0.2260
    130  O         -0.8620   34.3290  -23.0580 O.2    89  LYS89      -0.2867
    131  CB        -1.0630   31.0920  -23.2160 C.3    89  LYS89       0.0271
    132  CG        -0.2180   29.8050  -23.0730 C.3    89  LYS89       0.0035
    133  CD        -0.5460   28.7880  -24.1580 C.3    89  LYS89       0.0206
    134  CE        -0.0040   27.4010  -23.8360 C.3    89  LYS89       0.1093
    135  NZ        -0.5420   26.3980  -24.8100 N.3    89  LYS89      -0.1314
    136  N         -2.4440   27.5900  -15.7130 N.3   131  GLN131     -0.1231
    137  CA        -2.4150   26.5850  -16.7840 C.3   131  GLN131      0.1698
    138  C         -3.6480   25.6970  -16.8540 C.2   131  GLN131      0.2592
    139  O         -3.9490   25.1570  -17.9140 O.2   131  GLN131     -0.2718
    140  CB        -1.1560   25.7150  -16.6810 C.3   131  GLN131      0.0381
    141  CG         0.1540   26.4860  -16.9370 C.3   131  GLN131      0.0905
    142  CD         0.7330   27.1970  -15.6980 C.2   131  GLN131      0.2608
    143  OE1        0.0940   27.3200  -14.6350 O.2   131  GLN131     -0.2717
    144  NE2        1.9540   27.6940  -15.8520 N.am  131  GLN131     -0.0878
    145  N         -4.3600   25.5430  -15.7420 N.am  132  ASN132     -0.1974
    146  CA        -5.5560   24.6950  -15.6890 C.3   132  ASN132      0.1688
    147  C         -6.8610   25.4900  -15.7900 C.2   132  ASN132      0.2292
    148  O         -7.9370   24.9590  -15.5730 O.2   132  ASN132     -0.2864
    149  CB        -5.5410   23.8230  -14.4150 C.3   132  ASN132      0.1181
    150  CG        -4.5100   22.7060  -14.4930 C.2   132  ASN132      0.2629
    151  OD1       -4.0950   22.3360  -15.5780 O.2   132  ASN132     -0.2716
    152  ND2       -4.0970   22.1730  -13.3550 N.am  132  ASN132     -0.0877
    153  N         -9.0180   27.6270  -18.3480 N.3   134  LEU134     -0.1245
    154  CA        -9.1160   27.7900  -19.8010 C.3   134  LEU134      0.1561
    155  C        -10.1270   28.8630  -20.2080 C.2   134  LEU134      0.2260
    156  O        -11.1910   28.9790  -19.5990 O.2   134  LEU134     -0.2867
    157  CB        -9.4540   26.4450  -20.4570 C.3   134  LEU134      0.0270
    158  CG        -8.5000   25.2900  -20.0810 C.3   134  LEU134      0.0019
    159  CD1       -8.9340   23.9960  -20.7330 C.3   134  LEU134      0.0001
    160  CD2       -7.0080   25.5890  -20.4270 C.3   134  LEU134      0.0001
    161  N        -10.3150   23.3820  -15.4120 N.3   144  ALA144     -0.1231
    162  CA        -9.9550   22.2130  -16.1550 C.3   144  ALA144      0.1694
    163  C         -8.9410   21.3190  -15.4370 C.2   144  ALA144      0.2592
    164  O         -8.3750   21.6800  -14.4430 O.2   144  ALA144     -0.2718
    165  CB        -9.5370   22.5320  -17.4680 C.3   144  ALA144      0.0304
    166  N         -8.7250   20.1520  -16.0070 N.am  145  ASP145     -0.1974
    167  CA        -7.8480   19.1270  -15.4350 C.3   145  ASP145      0.1709
    168  C         -8.1810   18.7390  -13.9870 C.2   145  ASP145      0.2293
    169  O         -7.5920   19.2710  -13.0400 O.2   145  ASP145     -0.2864
    170  CB        -6.3620   19.5010  -15.5580 C.3   145  ASP145      0.1436
    171  CG        -5.4560   18.2910  -15.3700 C.2   145  ASP145      0.3671
    172  OD1       -5.9270   17.2710  -14.8020 O.co2 145  ASP145     -0.2456
    173  OD2       -4.2800   18.3540  -15.7700 O.co2 145  ASP145     -0.2456
@<TRIPOS>BOND
     1   100   101   ar
     2   100    98   ar
     3     7     5    1
     4   101    99   ar
     5    98    96   ar
     6     1     2    1
     7    99    97   ar
     8    96    97   ar
     9    96    95    1
    10    95    92    1
    11     2     5    1
    12     2     3    1
    13     5     6    1
    14    29    28    2
    15     6     8    1
    16    33    34    1
    17    28    27    1
    18    34    35    1
    19    34    37    1
    20     3     9    1
    21     3     4    2
    22    92    91    1
    23    92    93    1
    24    35    36    2
    25    91    84   am
    26     9    10    2
    27    94    93    2
    28    93   102   am
    29   105   104    2
    30    74    73    2
    31    27    26    1
    32    27    30    1
    33   104   103    1
    34   118   116   am
    35   102   103    1
    36    12    11    2
    37    84    83    1
    38    84    85    2
    39    20    19   ar
    40   103   106    1
    41    10    11    1
    42   110   111    1
    43    31    30    1
    44    83    82    1
    45    83    86    1
    46   114   115    1
    47   114   111    1
    48    38    39    1
    49   116   115    1
    50   116   117    2
    51    30    32    1
    52   135   134    1
    53    73    82   am
    54    73    72    1
    55    11    13   am
    56    71    72    1
    57   111   112    1
    58    86    87    1
    59   133   134    1
    60   133   132    1
    61    40    39    1
    62    40    41    2
    63    39    42    1
    64    19    18    1
    65    19    21   ar
    66    72    75    1
    67   106   107    1
    68    17    18    1
    69    17    14    1
    70    13    14    1
    71   131   132    1
    72   131   128    1
    73   107   109    1
    74   107   108    1
    75   130   129    2
    76    75    76    1
    77   112   113    2
    78   112   119   am
    79    87    88    1
    80    89    88   ar
    81    14    15    1
    82    42    43    1
    83   129   128    1
    84   119   120    1
    85    88    90   ar
    86   128   127    1
    87    78    76   ar
    88    78    80   ar
    89    76    77   ar
    90    43    44    1
    91    15    16    2
    92    15    22   am
    93   126   124   ar
    94   122   121    2
    95   120   121    1
    96   120   123    1
    97    80    81   ar
    98   159   158    1
    99   124   123    1
   100   124   125   ar
   101    77    79   ar
   102    23    22    1
   103    23    24    1
   104    69    68    1
   105   157   158    1
   106   157   154    1
   107   160   158    1
   108    25    24    2
   109    44    45    1
   110   155   154    1
   111   155   156    2
   112   154   153    1
   113    81    79   ar
   114    45    46    1
   115    68    70    1
   116    68    65    1
   117    66    65    1
   118    66    67    2
   119    65    64    1
   120   139   138    2
   121   165   162    1
   122   141   140    1
   123   141   142    1
   124   138   137    1
   125   138   145   am
   126    54    53   ar
   127   137   140    1
   128   137   136    1
   129    55    53   ar
   130    53    52    1
   131   162   163    1
   132   162   161    1
   133   166   163   am
   134   166   167    1
   135   144   142   am
   136    63    61    1
   137   147   146    1
   138   147   148    2
   139   173   171   ar
   140   145   146    1
   141   142   143    2
   142   146   149    1
   143    52    51    1
   144   151   150    2
   145   170   167    1
   146   170   171    1
   147    61    60    1
   148    61    62    1
   149   163   164    2
   150   167   168    1
   151   171   172   ar
   152    60    57    1
   153    59    58    2
   154    58    57    1
   155    51    48    1
   156   150   149    1
   157   150   152   am
   158    50    49    2
   159    49    48    1
   160    57    56    1
   161   168   169    2
   162    48    47    1
