@<TRIPOS>MOLECULE
tmp/3bhxA06.pdb
 179 172 0 0 0
SMALL
GASTEIGER

@<TRIPOS>ATOM
      1  N         21.6510   50.2260   36.2000 N.3   155  PHE155     -0.1227
      2  CA        20.5310   49.2730   36.1720 C.3   155  PHE155      0.1736
      3  C         20.2280   48.7900   34.7470 C.2   155  PHE155      0.2595
      4  O         20.1880   49.5970   33.7650 O.2   155  PHE155     -0.2718
      5  CB        19.2850   50.0350   36.6860 C.3   155  PHE155      0.0547
      6  CG        18.0150   49.2390   36.6340 C.ar  155  PHE155     -0.0202
      7  CD1       17.8990   48.0400   37.3490 C.ar  155  PHE155     -0.0042
      8  CD2       16.9000   49.7660   35.9420 C.ar  155  PHE155     -0.0042
      9  CE1       16.7000   47.2840   37.3150 C.ar  155  PHE155     -0.0003
     10  CE2       15.7140   49.0090   35.9000 C.ar  155  PHE155     -0.0003
     11  CZ        15.6260   47.7770   36.5880 C.ar  155  PHE155     -0.0000
     12  N         19.9550   47.4820   34.6270 N.am  156  ARG156     -0.1980
     13  CA        19.7570   46.9000   33.2840 C.3   156  ARG156      0.1597
     14  C         18.5700   47.4990   32.4920 C.2   156  ARG156      0.2287
     15  O         18.5400   47.5630   31.2440 O.2   156  ARG156     -0.2864
     16  CB        19.6960   45.3720   33.3740 C.3   156  ARG156      0.0334
     17  CG        18.3880   44.8730   34.0150 C.3   156  ARG156      0.0492
     18  CD        18.4010   43.3270   34.2450 C.3   156  ARG156      0.2205
     19  NE        19.1810   42.9430   35.4300 N.pl3 156  ARG156     -0.0865
     20  CZ        18.7860   43.1690   36.6960 C.cat 156  ARG156      0.5346
     21  NH1       17.5940   43.7580   36.9310 N.pl3 156  ARG156      0.1354
     22  NH2       19.5300   42.7730   37.7200 N.pl3 156  ARG156      0.1354
     23  N         16.9500   39.0920   35.7820 N.3   202  GLY202     -0.1210
     24  CA        16.4750   40.4180   36.2870 C.3   202  GLY202      0.1956
     25  C         15.5260   41.1140   35.3480 C.2   202  GLY202      0.2611
     26  O         15.5410   40.9730   34.1100 O.2   202  GLY202     -0.2717
     27  N         14.6720   41.9540   35.9550 N.am  203  ASN203     -0.1974
     28  CA        13.6820   42.6460   35.1530 C.3   203  ASN203      0.1688
     29  C         14.3120   43.8420   34.4480 C.2   203  ASN203      0.2292
     30  O         15.3530   44.3710   34.8750 O.2   203  ASN203     -0.2864
     31  CB        12.4730   43.1130   36.0220 C.3   203  ASN203      0.1181
     32  CG        12.7230   44.4840   36.6980 C.2   203  ASN203      0.2629
     33  OD1       12.6560   45.5030   36.0370 O.2   203  ASN203     -0.2716
     34  ND2       12.8740   44.4930   38.0210 N.am  203  ASN203     -0.0877
     35  N         12.4170   42.4470   51.0390 N.3   323  HIS323     -0.1241
     36  CA        11.6720   41.4720   50.2430 C.3   323  HIS323      0.1621
     37  C         12.0030   40.0160   50.5740 C.2   323  HIS323      0.2264
     38  O         13.0370   39.7270   51.2030 O.2   323  HIS323     -0.2867
     39  CB        11.7500   41.7930   48.7280 C.3   323  HIS323      0.0745
     40  CG        13.0620   41.5000   48.0750 C.ar  323  HIS323      0.0817
     41  ND1       13.2020   40.4140   47.2340 N.ar  323  HIS323     -0.2268
     42  CD2       14.2050   42.2130   47.9750 C.ar  323  HIS323      0.1154
     43  CE1       14.3950   40.4620   46.6700 C.ar  323  HIS323      0.1986
     44  NE2       15.0370   41.5260   47.1190 N.ar  323  HIS323     -0.2212
     45  N         20.4560   37.5280   48.0050 N.3   333  ASP333     -0.1239
     46  CA        19.3830   38.4940   47.6150 C.3   333  ASP333      0.1674
     47  C         18.0540   37.7280   47.4860 C.2   333  ASP333      0.2266
     48  O         17.8330   37.0690   46.4800 O.2   333  ASP333     -0.2867
     49  CB        19.8310   39.0670   46.2960 C.3   333  ASP333      0.1410
     50  CG        18.8520   40.0200   45.7210 C.2   333  ASP333      0.3668
     51  OD1       17.9370   40.3940   46.4830 O.co2 333  ASP333     -0.2456
     52  OD2       19.0210   40.3650   44.5320 O.co2 333  ASP333     -0.2456
     53  N          9.4540   42.0330   44.6390 N.3   370  GLU370     -0.1231
     54  CA        10.4780   43.0990   44.5660 C.3   370  GLU370      0.1699
     55  C         11.2860   42.9500   43.3080 C.2   370  GLU370      0.2592
     56  O         11.6270   43.9350   42.6220 O.2   370  GLU370     -0.2718
     57  CB        11.3140   43.1220   45.8540 C.3   370  GLU370      0.0402
     58  CG        12.2380   44.3250   45.9240 C.3   370  GLU370      0.1161
     59  CD        13.6150   44.1210   45.3700 C.2   370  GLU370      0.3649
     60  OE1       13.9130   43.0460   44.7420 O.co2 370  GLU370     -0.2457
     61  OE2       14.4650   45.0220   45.6180 O.co2 370  GLU370     -0.2457
     62  N         11.5400   41.6790   42.9490 N.am  371  GLU371     -0.1979
     63  CA        12.4390   41.4540   41.8030 C.3   371  GLU371      0.1602
     64  C         11.8010   41.8400   40.4820 C.2   371  GLU371      0.2287
     65  O         12.5150   42.0350   39.4740 O.2   371  GLU371     -0.2864
     66  CB        12.8750   39.9840   41.7780 C.3   371  GLU371      0.0415
     67  CG        13.7700   39.5740   42.9400 C.3   371  GLU371      0.1163
     68  CD        15.1930   40.2040   42.9140 C.2   371  GLU371      0.3649
     69  OE1       15.5140   41.0570   42.0440 O.co2 371  GLU371     -0.2457
     70  OE2       16.0190   39.8570   43.7790 O.co2 371  GLU371     -0.2457
     71  N         10.0470   44.6170   40.0730 N.3   373  GLY373     -0.1210
     72  CA         9.9280   46.0710   40.0100 C.3   373  GLY373      0.1956
     73  C          9.3780   46.6990   41.2920 C.2   373  GLY373      0.2611
     74  O          8.6180   47.7140   41.1990 O.2   373  GLY373     -0.2717
     75  N          9.7220   46.1450   42.4310 N.am  374  LEU374     -0.1979
     76  CA         9.2800   46.7590   43.7070 C.3   374  LEU374      0.1596
     77  C          7.7660   46.7240   43.8140 C.2   374  LEU374      0.2287
     78  O          7.1440   47.6060   44.4400 O.2   374  LEU374     -0.2864
     79  CB         9.8560   48.2270   43.8330 C.3   374  LEU374      0.0297
     80  CG        11.2500   48.4570   43.2590 C.3   374  LEU374      0.0022
     81  CD1       11.5780   49.9600   43.4710 C.3   374  LEU374      0.0001
     82  CD2       12.2960   47.6050   43.9860 C.3   374  LEU374      0.0001
     83  N         17.0170   44.4750   52.6040 N.3   399  ASP399     -0.1225
     84  CA        17.3790   43.4810   51.5700 C.3   399  ASP399      0.1805
     85  C         18.7280   42.8590   51.9830 C.2   399  ASP399      0.2598
     86  O         19.1110   42.9490   53.1470 O.2   399  ASP399     -0.2718
     87  CB        17.4890   44.1460   50.1880 C.3   399  ASP399      0.1424
     88  CG        17.3280   43.1660   49.0400 C.2   399  ASP399      0.3668
     89  OD1       17.3710   41.9680   49.2980 O.co2 399  ASP399     -0.2456
     90  OD2       17.2080   43.6060   47.8670 O.co2 399  ASP399     -0.2456
     91  N         19.4460   42.2830   51.0050 N.am  400  SER400     -0.1952
     92  CA        20.7440   41.5750   51.2350 C.3   400  SER400      0.1924
     93  C         21.5670   42.2160   52.3770 C.2   400  SER400      0.2314
     94  O         21.8860   43.4300   52.3500 O.2   400  SER400     -0.2863
     95  CB        21.5180   41.5670   49.9380 C.3   400  SER400      0.2116
     96  OG        20.6760   40.9780   48.9720 O.3   400  SER400     -0.2180
     97  N         16.9730   54.4540   43.7020 N.3   463  SER463     -0.1202
     98  CA        16.0230   53.4280   43.7380 C.3   463  SER463      0.2020
     99  C         16.6660   52.0120   43.5730 C.2   463  SER463      0.2619
    100  O         17.8650   51.7460   43.8870 O.2   463  SER463     -0.2717
    101  CB        14.9480   53.7060   42.7220 C.3   463  SER463      0.2103
    102  OG        13.9080   52.7580   42.8040 O.3   463  SER463     -0.2182
    103  N         15.8490   51.0840   43.0590 N.am  464  GLY464     -0.1942
    104  CA        16.3120   49.7090   42.9130 C.3   464  GLY464      0.2014
    105  C         16.0690   48.9080   44.1790 C.2   464  GLY464      0.2638
    106  O         16.6240   47.8480   44.3550 O.2   464  GLY464     -0.2714
    107  N         15.2500   49.4280   45.1250 N.am  465  ASN465     -0.1972
    108  CA        14.8550   48.6410   46.2890 C.3   465  ASN465      0.1688
    109  C         13.6120   49.2110   46.9450 C.2   465  ASN465      0.2292
    110  O         13.0950   50.2380   46.4950 O.2   465  ASN465     -0.2864
    111  CB        16.0080   48.4970   47.3070 C.3   465  ASN465      0.1181
    112  CG        16.1000   47.0990   47.8170 C.2   465  ASN465      0.2629
    113  OD1       15.1750   46.5680   48.4280 O.2   465  ASN465     -0.2716
    114  ND2       17.2160   46.4470   47.4540 N.am  465  ASN465     -0.0877
    115  N         19.1460   52.5860   54.7670 N.3   480  ARG480     -0.1245
    116  CA        19.5510   51.1890   54.5440 C.3   480  ARG480      0.1563
    117  C         21.0240   51.0310   54.9450 C.2   480  ARG480      0.2260
    118  O         21.8240   51.9830   54.8540 O.2   480  ARG480     -0.2867
    119  CB        19.3380   50.8070   53.0760 C.3   480  ARG480      0.0307
    120  CG        20.2610   51.4950   52.1300 C.3   480  ARG480      0.0489
    121  CD        19.8310   51.3270   50.6400 C.3   480  ARG480      0.2205
    122  NE        19.7790   49.9130   50.2430 N.pl3 480  ARG480     -0.0865
    123  CZ        19.8440   49.4840   48.9780 C.cat 480  ARG480      0.5346
    124  NH1       19.7630   48.1780   48.7370 N.pl3 480  ARG480      0.1354
    125  NH2       19.8930   50.3350   47.9580 N.pl3 480  ARG480      0.1354
    126  N         24.2260   47.7410   54.9070 N.3   482  ARG482     -0.1245
    127  CA        24.5800   46.3320   54.6100 C.3   482  ARG482      0.1563
    128  C         26.0920   46.2650   54.6540 C.2   482  ARG482      0.2260
    129  O         26.7700   47.2690   54.5170 O.2   482  ARG482     -0.2867
    130  CB        23.9880   45.8570   53.2550 C.3   482  ARG482      0.0307
    131  CG        24.3580   46.6930   52.0130 C.3   482  ARG482      0.0489
    132  CD        23.4080   47.8980   51.8930 C.3   482  ARG482      0.2205
    133  NE        23.3080   48.5010   50.5490 N.pl3 482  ARG482     -0.0865
    134  CZ        23.3690   49.8100   50.2850 C.cat 482  ARG482      0.5346
    135  NH1       23.6100   50.6910   51.2710 N.pl3 482  ARG482      0.1354
    136  NH2       23.1940   50.2310   49.0370 N.pl3 482  ARG482      0.1354
    137  N         25.4260   37.3510   41.5740 N.3   498  TYR498     -0.1227
    138  CA        24.0990   38.0420   41.6310 C.3   498  TYR498      0.1736
    139  C         23.0940   37.4500   40.6330 C.2   498  TYR498      0.2595
    140  O         23.3370   37.4690   39.4110 O.2   498  TYR498     -0.2718
    141  CB        24.4270   39.5100   41.3540 C.3   498  TYR498      0.0548
    142  CG        23.2480   40.4910   41.2970 C.ar  498  TYR498     -0.0200
    143  CD1       22.3930   40.6230   42.3900 C.ar  498  TYR498     -0.0009
    144  CD2       23.0640   41.2920   40.1590 C.ar  498  TYR498     -0.0009
    145  CE1       21.3140   41.5350   42.2810 C.ar  498  TYR498      0.0417
    146  CE2       22.0600   42.2150   40.0850 C.ar  498  TYR498      0.0417
    147  CZ        21.1930   42.3090   41.1320 C.ar  498  TYR498      0.1957
    148  OH        20.1700   43.2480   40.9870 O.3   498  TYR498     -0.2866
    149  N         21.9420   36.9770   41.1690 N.am  499  HIS499     -0.1975
    150  CA        20.7310   36.5710   40.3930 C.3   499  HIS499      0.1656
    151  C         20.9980   35.2980   39.5300 C.2   499  HIS499      0.2291
    152  O         20.2540   35.0180   38.5820 O.2   499  HIS499     -0.2864
    153  CB        20.2590   37.6690   39.4530 C.3   499  HIS499      0.0771
    154  CG        19.5490   38.8030   40.1540 C.ar  499  HIS499      0.0820
    155  ND1       18.9380   39.8280   39.4550 N.ar  499  HIS499     -0.2267
    156  CD2       19.3460   39.0480   41.4740 C.ar  499  HIS499      0.1154
    157  CE1       18.3710   40.6580   40.3240 C.ar  499  HIS499      0.1986
    158  NE2       18.5320   40.1750   41.5460 N.ar  499  HIS499     -0.2212
    159  N         18.8840   53.8800   37.5280 N.3   643  LYS643     -0.1231
    160  CA        17.9310   53.8230   38.6660 C.3   643  LYS643      0.1693
    161  C         18.5910   53.5280   40.0010 C.2   643  LYS643      0.2592
    162  O         18.0980   53.9260   41.0760 O.2   643  LYS643     -0.2718
    163  CB        16.9220   52.7040   38.3190 C.3   643  LYS643      0.0285
    164  CG        15.7990   52.5950   39.2650 C.3   643  LYS643      0.0035
    165  CD        14.8730   51.4840   38.7200 C.3   643  LYS643      0.0206
    166  CE        13.5550   51.7050   39.4570 C.3   643  LYS643      0.1093
    167  NZ        12.6360   50.5600   39.2400 N.3   643  LYS643     -0.1314
    168  N         19.7200   52.8010   40.0010 N.am  644  TYR644     -0.1976
    169  CA        20.3340   52.4750   41.2840 C.3   644  TYR644      0.1639
    170  C         20.9950   53.6580   41.9900 C.2   644  TYR644      0.2290
    171  O         21.2300   53.5850   43.1770 O.2   644  TYR644     -0.2864
    172  CB        21.4490   51.4800   41.0700 C.3   644  TYR644      0.0560
    173  CG        21.0440   50.0750   40.6390 C.ar  644  TYR644     -0.0198
    174  CD1       19.9390   49.4330   41.1880 C.ar  644  TYR644     -0.0009
    175  CD2       21.8440   49.3790   39.7000 C.ar  644  TYR644     -0.0009
    176  CE1       19.5620   48.0900   40.7990 C.ar  644  TYR644      0.0417
    177  CE2       21.4930   48.0470   39.3010 C.ar  644  TYR644      0.0417
    178  CZ        20.3790   47.4250   39.8710 C.ar  644  TYR644      0.1957
    179  OH        20.0460   46.1370   39.4860 O.3   644  TYR644     -0.2866
@<TRIPOS>BOND
     1    15    14    2
     2    14    13    1
     3    13    16    1
     4    13    12    1
     5    16    17    1
     6     4     3    2
     7    17    18    1
     8    26    25    2
     9    18    19    1
    10    29    30    2
    11    29    28    1
    12    12     3   am
    13     3     2    1
    14    28    27    1
    15    28    31    1
    16    25    27   am
    17    25    24    1
    18    19    20    2
    19    23    24    1
    20    10     8   ar
    21    10    11   ar
    22     8     6   ar
    23    31    32    1
    24    33    32    2
    25     2     1    1
    26     2     5    1
    27    11     9   ar
    28     6     5    1
    29     6     7   ar
    30    20    21    1
    31    20    22    1
    32    32    34   am
    33     9     7   ar
    34   159   160    1
    35   163   160    1
    36   163   164    1
    37   152   151    2
    38   160   161    1
    39   165   164    1
    40   165   166    1
    41   167   166    1
    42   177   175   ar
    43   177   178   ar
    44   140   139    2
    45   153   154    1
    46   153   150    1
    47   155   154   ar
    48   155   157   ar
    49    65    64    2
    50   179   178    1
    51   151   150    1
    52   175   173   ar
    53   178   176   ar
    54   168   161   am
    55   168   169    1
    56   161   162    2
    57    72    71    1
    58    72    73    1
    59   146   144   ar
    60   146   147   ar
    61   154   156   ar
    62   144   142   ar
    63   157   158   ar
    64   150   149    1
    65    64    63    1
    66   139   149   am
    67   139   138    1
    68   173   172    1
    69   173   174   ar
    70   176   174   ar
    71   148   147    1
    72   172   169    1
    73   147   145   ar
    74    74    73    2
    75   169   170    1
    76    73    75   am
    77   142   141    1
    78   142   143   ar
    79   141   138    1
    80   156   158   ar
    81   137   138    1
    82    66    63    1
    83    66    67    1
    84    63    62    1
    85   170   171    2
    86    69    68   ar
    87   145   143   ar
    88    75    76    1
    89    56    55    2
    90   101   102    1
    91   101    98    1
    92   104   103    1
    93   104   105    1
    94    68    67    1
    95    68    70   ar
    96    62    55   am
    97   103    99   am
    98    80    81    1
    99    80    79    1
   100    80    82    1
   101    55    54    1
   102    99    98    1
   103    99   100    2
   104    97    98    1
   105    76    77    1
   106    76    79    1
   107    77    78    2
   108   105   106    2
   109   105   107   am
   110    52    50   ar
   111    54    53    1
   112    54    57    1
   113    60    59   ar
   114   107   108    1
   115    59    61   ar
   116    59    58    1
   117    50    49    1
   118    50    51   ar
   119    57    58    1
   120   108   109    1
   121   108   111    1
   122    49    46    1
   123    48    47    2
   124   110   109    2
   125    43    44   ar
   126    43    41   ar
   127    44    42   ar
   128    41    40   ar
   129   111   112    1
   130   114   112   am
   131    47    46    1
   132    46    45    1
   133   112   113    2
   134    90    88   ar
   135   125   123    1
   136    42    40   ar
   137    40    39    1
   138    39    36    1
   139   124   123    1
   140    96    95    1
   141   123   122    2
   142   136   134    1
   143    88    89   ar
   144    88    87    1
   145    95    92    1
   146    87    84    1
   147    36    37    1
   148    36    35    1
   149   122   121    1
   150   134   133    2
   151   134   135    1
   152   133   132    1
   153    37    38    2
   154   121   120    1
   155    91    92    1
   156    91    85   am
   157    92    93    1
   158    84    85    1
   159    84    83    1
   160   132   131    1
   161    85    86    2
   162   131   130    1
   163   120   119    1
   164    94    93    2
   165   119   116    1
   166   130   127    1
   167   129   128    2
   168   116   115    1
   169   116   117    1
   170   127   128    1
   171   127   126    1
   172   118   117    2
