@<TRIPOS>MOLECULE
tmp/3bhyA00.pdb
 163 151 0 0 0
SMALL
GASTEIGER

@<TRIPOS>ATOM
      1  N          8.3400   24.2220   24.4630 N.3    12  LEU12      -0.1231
      2  CA         9.0440   22.9730   24.2870 C.3    12  LEU12       0.1693
      3  C          9.0490   22.0930   25.5210 C.2    12  LEU12       0.2593
      4  O          9.2900   20.9070   25.4120 O.2    12  LEU12      -0.2718
      5  CB        10.4920   23.2610   23.8880 C.3    12  LEU12       0.0284
      6  CG        10.7350   24.0800   22.6130 C.3    12  LEU12       0.0019
      7  CD1       12.2150   24.4600   22.5010 C.3    12  LEU12       0.0001
      8  CD2       10.2810   23.2400   21.4000 C.3    12  LEU12       0.0001
      9  N          8.8620   22.6640   26.7050 N.am   13  GLY13      -0.1942
     10  CA         8.9090   21.9210   27.9380 C.3    13  GLY13       0.2014
     11  C          8.5950   22.7730   29.1160 C.2    13  GLY13       0.2640
     12  O          8.5260   23.9850   29.0450 O.2    13  GLY13      -0.2714
     13  N          8.3980   22.1140   30.2380 N.am   14  SER14      -0.1935
     14  CA         8.0100   22.7810   31.4430 C.3    14  SER14       0.2055
     15  C          8.3720   21.9740   32.6300 C.2    14  SER14       0.2643
     16  O          8.3400   20.7420   32.5950 O.2    14  SER14      -0.2714
     17  CB         6.5040   23.0390   31.4310 C.3    14  SER14       0.2130
     18  OG         5.7980   21.8250   31.1960 O.3    14  SER14      -0.2179
     19  N          8.6750   22.6820   33.7080 N.am   15  GLY15      -0.1954
     20  CA         8.7620   22.0710   35.0220 C.3    15  GLY15       0.1869
     21  C          8.0480   22.9290   36.0530 C.2    15  GLY15       0.2309
     22  O          7.2350   23.7730   35.7150 O.2    15  GLY15      -0.2863
     23  N          9.7440   26.5140   35.7760 N.3    18  ALA18      -0.1231
     24  CA        10.3660   26.9130   34.5300 C.3    18  ALA18       0.1694
     25  C          9.5490   26.5040   33.3520 C.2    18  ALA18       0.2592
     26  O          8.8240   25.5040   33.3820 O.2    18  ALA18      -0.2718
     27  CB        11.7710   26.3500   34.4630 C.3    18  ALA18       0.0304
     28  N          9.6110   27.3010   32.2990 N.am   19  ILE19      -0.1966
     29  CA         9.0380   26.9580   31.0290 C.3    19  ILE19       0.1727
     30  C         10.1040   27.2400   29.9690 C.2    19  ILE19       0.2616
     31  O         10.8280   28.1990   30.0860 O.2    19  ILE19      -0.2715
     32  CB         7.7160   27.7330   30.7460 C.3    19  ILE19       0.0290
     33  CG1        6.6540   27.6350   31.8620 C.3    19  ILE19       0.0022
     34  CG2        7.3390   27.9690   29.2440 C.3    19  ILE19       0.0023
     35  CD1        5.6970   28.8710   31.9050 C.3    19  ILE19       0.0001
     36  N         10.1840   26.4030   28.9580 N.am   20  VAL20      -0.1977
     37  CA        11.0940   26.6400   27.8620 C.3    20  VAL20       0.1596
     38  C         10.3210   26.7930   26.5620 C.2    20  VAL20       0.2287
     39  O          9.4340   25.9740   26.2750 O.2    20  VAL20      -0.2864
     40  CB        12.0520   25.4490   27.7050 C.3    20  VAL20       0.0276
     41  CG1       13.0010   25.6510   26.5190 C.3    20  VAL20       0.0022
     42  CG2       12.8280   25.2530   28.9510 C.3    20  VAL20       0.0022
     43  N         16.4790   28.3960   22.4320 N.3    33  ALA33      -0.1245
     44  CA        15.5180   27.9970   23.4750 C.3    33  ALA33       0.1562
     45  C         15.5050   29.0120   24.5820 C.2    33  ALA33       0.2260
     46  O         16.5440   29.2620   25.1660 O.2    33  ALA33      -0.2867
     47  CB        15.9000   26.6260   24.0110 C.3    33  ALA33       0.0290
     48  N         14.5200   29.7790   28.2220 N.3    35  LYS35      -0.1245
     49  CA        14.1120   29.1900   29.4870 C.3    35  LYS35       0.1561
     50  C         13.7270   30.2920   30.4840 C.2    35  LYS35       0.2260
     51  O         14.5750   31.0510   30.9270 O.2    35  LYS35      -0.2867
     52  CB        15.2200   28.3140   30.0390 C.3    35  LYS35       0.0271
     53  CG        14.7970   27.6060   31.3700 C.3    35  LYS35       0.0035
     54  CD        15.9610   26.7320   31.8460 C.3    35  LYS35       0.0206
     55  CE        15.8050   26.2230   33.2060 C.3    35  LYS35       0.1093
     56  NZ        17.0860   25.5090   33.6230 N.3    35  LYS35      -0.1314
     57  N         25.3710   22.4360   26.5660 N.3    70  ILE70      -0.1245
     58  CA        24.5940   23.5210   26.0080 C.3    70  ILE70       0.1561
     59  C         25.2650   24.8610   26.2660 C.2    70  ILE70       0.2260
     60  O         25.8220   25.0810   27.3300 O.2    70  ILE70      -0.2867
     61  CB        23.1660   23.4480   26.6140 C.3    70  ILE70       0.0252
     62  CG1       22.1380   24.0610   25.7040 C.3    70  ILE70       0.0019
     63  CG2       23.0810   24.0160   28.0040 C.3    70  ILE70       0.0019
     64  CD1       21.8790   23.1920   24.5440 C.3    70  ILE70       0.0001
     65  N         19.2320   30.0520   25.4220 N.3    86  LEU86      -0.1231
     66  CA        20.1110   28.9140   25.3570 C.3    86  LEU86       0.1693
     67  C         20.1500   28.3970   23.9360 C.2    86  LEU86       0.2592
     68  O         19.2040   28.5400   23.1490 O.2    86  LEU86      -0.2718
     69  CB        19.5640   27.7770   26.2700 C.3    86  LEU86       0.0284
     70  CG        19.5510   28.0910   27.7490 C.3    86  LEU86       0.0019
     71  CD1       18.6590   27.1220   28.4850 C.3    86  LEU86       0.0001
     72  CD2       20.9340   27.9990   28.3080 C.3    86  LEU86       0.0001
     73  N         21.2340   27.7190   23.6130 N.am   87  GLU87      -0.1966
     74  CA        21.3270   26.9810   22.3670 C.3    87  GLU87       0.1733
     75  C         20.1170   26.0810   22.1800 C.2    87  GLU87       0.2616
     76  O         19.7480   25.3380   23.0750 O.2    87  GLU87      -0.2715
     77  CB        22.5830   26.1280   22.4720 C.3    87  GLU87       0.0429
     78  CG        22.9260   25.2890   21.2770 C.3    87  GLU87       0.1163
     79  CD        24.2320   24.5590   21.4130 C.2    87  GLU87       0.3649
     80  OE1       24.8090   24.4580   22.5320 O.co2  87  GLU87      -0.2457
     81  OE2       24.6600   24.0420   20.3580 O.co2  87  GLU87      -0.2457
     82  N         19.5160   26.0990   20.9840 N.am   88  LEU88      -0.1963
     83  CA        18.3810   25.2540   20.7120 C.3    88  LEU88       0.1728
     84  C         18.9120   23.8810   20.3460 C.2    88  LEU88       0.2616
     85  O         19.7880   23.7560   19.5150 O.2    88  LEU88      -0.2715
     86  CB        17.5430   25.8090   19.5570 C.3    88  LEU88       0.0311
     87  CG        16.2890   25.0150   19.1820 C.3    88  LEU88       0.0022
     88  CD1       15.2850   24.9650   20.3130 C.3    88  LEU88       0.0001
     89  CD2       15.6860   25.6390   17.9220 C.3    88  LEU88       0.0001
     90  N         18.3410   22.8680   20.9820 N.am   89  VAL89      -0.1977
     91  CA        18.6360   21.4610   20.6980 C.3    89  VAL89       0.1596
     92  C         17.2770   20.8310   20.4240 C.2    89  VAL89       0.2287
     93  O         16.4090   20.8330   21.3080 O.2    89  VAL89      -0.2864
     94  CB        19.4140   20.7760   21.8710 C.3    89  VAL89       0.0276
     95  CG1       19.9380   19.4170   21.4180 C.3    89  VAL89       0.0022
     96  CG2       20.5850   21.6720   22.3100 C.3    89  VAL89       0.0022
     97  N         14.7790   14.7750   24.2270 N.3    93  GLU93      -0.1245
     98  CA        15.5290   14.2350   25.3260 C.3    93  GLU93       0.1567
     99  C         16.0000   12.8190   25.0140 C.2    93  GLU93       0.2260
    100  O         15.3000   12.0570   24.3480 O.2    93  GLU93      -0.2867
    101  CB        14.6340   14.1720   26.5890 C.3    93  GLU93       0.0388
    102  CG        14.2840   15.5030   27.2310 C.3    93  GLU93       0.1160
    103  CD        13.1890   15.3610   28.2760 C.2    93  GLU93       0.3649
    104  OE1       12.9180   14.2230   28.7220 O.co2  93  GLU93      -0.2457
    105  OE2       12.5740   16.3830   28.6370 O.co2  93  GLU93      -0.2457
    106  N         22.6910   16.3980   38.5960 N.3   132  ASP132     -0.1239
    107  CA        21.3590   15.9640   38.1350 C.3   132  ASP132      0.1674
    108  C         21.4590   15.2910   36.7760 C.2   132  ASP132      0.2266
    109  O         20.6370   15.5260   35.8940 O.2   132  ASP132     -0.2867
    110  CB        20.3560   17.1230   38.1120 C.3   132  ASP132      0.1410
    111  CG        18.9020   16.6570   38.1960 C.2   132  ASP132      0.3668
    112  OD1       18.5600   15.4830   38.4800 O.co2 132  ASP132     -0.2456
    113  OD2       18.0480   17.5190   37.9240 O.co2 132  ASP132     -0.2456
    114  N         20.7910   12.5900   34.1780 N.3   134  LYS134     -0.1245
    115  CA        19.7340   11.6320   33.9080 C.3   134  LYS134      0.1561
    116  C         19.3400   11.8220   32.4510 C.2   134  LYS134      0.2260
    117  O         19.6310   12.8690   31.8680 O.2   134  LYS134     -0.2867
    118  CB        18.5140   11.8540   34.8350 C.3   134  LYS134      0.0271
    119  CG        17.9230   13.2790   34.8000 C.3   134  LYS134      0.0035
    120  CD        16.7230   13.3990   35.6890 C.3   134  LYS134      0.0206
    121  CE        16.2380   14.8150   35.8400 C.3   134  LYS134      0.1093
    122  NZ        14.9270   14.9000   36.6220 N.3   134  LYS134     -0.1314
    123  N         16.5980   12.6660   30.9910 N.3   136  GLU136     -0.1231
    124  CA        15.7960   13.8420   30.7320 C.3   136  GLU136      0.1699
    125  C         16.6460   15.1290   30.5910 C.2   136  GLU136      0.2592
    126  O         16.1720   16.1240   29.9960 O.2   136  GLU136     -0.2718
    127  CB        14.7740   14.0400   31.8470 C.3   136  GLU136      0.0402
    128  CG        13.8090   12.8810   31.9860 C.3   136  GLU136      0.1161
    129  CD        14.2380   11.7390   33.0230 C.2   136  GLU136      0.3649
    130  OE1       15.4150   11.2080   33.1060 O.co2 136  GLU136     -0.2457
    131  OE2       13.2990   11.3780   33.7700 O.co2 136  GLU136     -0.2457
    132  N         17.8760   15.1050   31.1360 N.am  137  ASN137     -0.1974
    133  CA        18.7910   16.2630   31.0780 C.3   137  ASN137      0.1688
    134  C         19.8920   16.1040   30.0460 C.2   137  ASN137      0.2292
    135  O         20.9390   16.7540   30.1390 O.2   137  ASN137     -0.2864
    136  CB        19.3560   16.5400   32.4750 C.3   137  ASN137      0.1181
    137  CG        18.3670   17.1900   33.3850 C.2   137  ASN137      0.2629
    138  OD1       17.3740   17.7730   32.9130 O.2   137  ASN137     -0.2716
    139  ND2       18.6140   17.1250   34.6770 N.am  137  ASN137     -0.0877
    140  N         20.0530   16.1480   25.8700 N.3   139  MET139     -0.1245
    141  CA        19.2760   16.4520   24.6640 C.3   139  MET139      0.1570
    142  C         20.0140   15.9900   23.4190 C.2   139  MET139      0.2261
    143  O         21.2270   16.0800   23.3590 O.2   139  MET139     -0.2867
    144  CB        19.0490   17.9530   24.5830 C.3   139  MET139      0.0387
    145  CG        18.1670   18.4410   25.7040 C.3   139  MET139      0.0595
    146  SD        16.4450   17.9320   25.5520 S.3   139  MET139     -0.1393
    147  CE        16.0210   18.7630   24.0430 C.3   139  MET139      0.0692
    148  N         22.2230   19.4360   29.6620 N.3   153  ILE153     -0.1231
    149  CA        21.4450   20.6020   30.0240 C.3   153  ILE153      0.1692
    150  C         21.1210   20.5920   31.5010 C.2   153  ILE153      0.2592
    151  O         21.4540   19.6450   32.2430 O.2   153  ILE153     -0.2718
    152  CB        20.1130   20.6740   29.2010 C.3   153  ILE153      0.0266
    153  CG1       19.1680   19.5070   29.5480 C.3   153  ILE153      0.0019
    154  CG2       20.3770   20.7300   27.6860 C.3   153  ILE153      0.0020
    155  CD1       17.7140   19.7950   29.1890 C.3   153  ILE153      0.0001
    156  N         20.4810   21.6790   31.9370 N.am  154  ASP154     -0.1974
    157  CA        19.8990   21.8200   33.2540 C.3   154  ASP154      0.1709
    158  C         20.9210   21.7430   34.3640 C.2   154  ASP154      0.2293
    159  O         21.0370   20.7660   35.1040 O.2   154  ASP154     -0.2864
    160  CB        18.6400   20.9750   33.4380 C.3   154  ASP154      0.1436
    161  CG        17.3550   21.7440   32.9910 C.2   154  ASP154      0.3671
    162  OD1       17.4670   22.7860   32.2980 O.co2 154  ASP154     -0.2456
    163  OD2       16.2460   21.3100   33.3600 O.co2 154  ASP154     -0.2456
@<TRIPOS>BOND
     1    89    87    1
     2    87    86    1
     3    87    88    1
     4    85    84    2
     5    86    83    1
     6    84    83    1
     7    84    90   am
     8    81    79   ar
     9    92    91    1
    10    92    93    2
    11    91    90    1
    12    91    94    1
    13    83    82    1
    14    82    75   am
    15    78    79    1
    16    78    77    1
    17     8     6    1
    18    79    80   ar
    19    95    94    1
    20    94    96    1
    21    75    74    1
    22    75    76    2
    23    74    77    1
    24    74    73    1
    25    43    44    1
    26     7     6    1
    27     6     5    1
    28    68    67    2
    29   143   142    2
    30   142   141    1
    31    44    47    1
    32    44    45    1
    33    73    67   am
    34     5     2    1
    35    67    66    1
    36   147   146    1
    37    97    98    1
    38     2     1    1
    39     2     3    1
    40   100    99    2
    41    64    62    1
    42    45    46    2
    43   144   141    1
    44   144   145    1
    45   141   140    1
    46    99    98    1
    47    98   101    1
    48    66    65    1
    49    66    69    1
    50     4     3    2
    51     3     9   am
    52   146   145    1
    53    62    61    1
    54    58    59    1
    55    58    57    1
    56    58    61    1
    57    59    60    2
    58    69    70    1
    59    39    38    2
    60    41    40    1
    61    38    37    1
    62   101   102    1
    63    61    63    1
    64     9    10    1
    65   102   103    1
    66   154   152    1
    67    40    37    1
    68    40    42    1
    69    70    72    1
    70    70    71    1
    71    37    36    1
    72    10    11    1
    73    48    49    1
    74   103   105   ar
    75   103   104   ar
    76    36    30   am
    77    12    11    2
    78    11    13   am
    79   155   153    1
    80   152   153    1
    81   152   149    1
    82    34    32    1
    83    49    52    1
    84    49    50    1
    85   148   149    1
    86    30    31    2
    87    30    29    1
    88   126   125    2
    89   149   150    1
    90    52    53    1
    91   134   135    2
    92   134   133    1
    93    13    14    1
    94    50    51    2
    95   125   124    1
    96   125   132   am
    97   124   123    1
    98   124   127    1
    99    32    29    1
   100    32    33    1
   101    29    28    1
   102   133   132    1
   103   133   136    1
   104    18    17    1
   105    53    54    1
   106    17    14    1
   107    14    15    1
   108   150   156   am
   109   150   151    2
   110    54    55    1
   111   127   128    1
   112    33    35    1
   113   117   116    2
   114   156   157    1
   115   128   129    1
   116   162   161   ar
   117    28    25   am
   118   116   115    1
   119   136   137    1
   120    16    15    2
   121    15    19   am
   122   138   137    2
   123   161   163   ar
   124   161   160    1
   125   129   130   ar
   126   129   131   ar
   127    55    56    1
   128   157   160    1
   129   157   158    1
   130    25    26    2
   131    25    24    1
   132   137   139   am
   133    19    20    1
   134   115   114    1
   135   115   118    1
   136   158   159    2
   137    27    24    1
   138    24    23    1
   139   119   118    1
   140   119   120    1
   141    20    21    1
   142   120   121    1
   143    22    21    2
   144   121   122    1
   145   109   108    2
   146   108   107    1
   147   113   111   ar
   148   110   107    1
   149   110   111    1
   150   107   106    1
   151   111   112   ar
