@<TRIPOS>MOLECULE
tmp/3bi0A06.pdb
 204 196 0 0 0
SMALL
GASTEIGER

@<TRIPOS>ATOM
      1  N         21.7240   50.3540   36.1840 N.3   155  PHE155     -0.1227
      2  CA        20.5770   49.4360   36.1390 C.3   155  PHE155      0.1736
      3  C         20.2880   48.9290   34.7250 C.2   155  PHE155      0.2595
      4  O         20.2490   49.7380   33.7130 O.2   155  PHE155     -0.2718
      5  CB        19.3260   50.1930   36.6580 C.3   155  PHE155      0.0547
      6  CG        18.0570   49.3990   36.5340 C.ar  155  PHE155     -0.0202
      7  CD1       17.9160   48.1950   37.2700 C.ar  155  PHE155     -0.0042
      8  CD2       16.9420   49.9160   35.8020 C.ar  155  PHE155     -0.0042
      9  CE1       16.7110   47.4270   37.1440 C.ar  155  PHE155     -0.0003
     10  CE2       15.7380   49.1500   35.7230 C.ar  155  PHE155     -0.0003
     11  CZ        15.6400   47.9360   36.3950 C.ar  155  PHE155     -0.0000
     12  N         20.0240   47.6170   34.6000 N.am  156  ARG156     -0.1980
     13  CA        19.7960   47.0390   33.2290 C.3   156  ARG156      0.1597
     14  C         18.6140   47.6600   32.4180 C.2   156  ARG156      0.2287
     15  O         18.6420   47.7330   31.1600 O.2   156  ARG156     -0.2864
     16  CB        19.7390   45.5040   33.3070 C.3   156  ARG156      0.0334
     17  CG        18.4990   44.9940   34.0300 C.3   156  ARG156      0.0492
     18  CD        18.5540   43.4530   34.1990 C.3   156  ARG156      0.2205
     19  NE        19.2800   43.0760   35.4280 N.pl3 156  ARG156     -0.0865
     20  CZ        18.8300   43.2740   36.6690 C.cat 156  ARG156      0.5346
     21  NH1       17.6380   43.8830   36.8520 N.pl3 156  ARG156      0.1354
     22  NH2       19.5490   42.9020   37.7140 N.pl3 156  ARG156      0.1354
     23  N         17.0200   39.2480   35.7300 N.3   202  GLY202     -0.1210
     24  CA        16.5500   40.5660   36.2500 C.3   202  GLY202      0.1956
     25  C         15.5940   41.2740   35.3230 C.2   202  GLY202      0.2611
     26  O         15.6040   41.1080   34.0820 O.2   202  GLY202     -0.2717
     27  N         14.7140   42.0800   35.9420 N.am  203  ASN203     -0.1974
     28  CA        13.7510   42.8010   35.1450 C.3   203  ASN203      0.1688
     29  C         14.3710   43.9880   34.4000 C.2   203  ASN203      0.2292
     30  O         15.4230   44.5130   34.7980 O.2   203  ASN203     -0.2864
     31  CB        12.5240   43.2260   35.9880 C.3   203  ASN203      0.1181
     32  CG        12.7260   44.6110   36.6620 C.2   203  ASN203      0.2629
     33  OD1       12.7030   45.6250   35.9870 O.2   203  ASN203     -0.2716
     34  ND2       12.8620   44.6270   37.9740 N.am  203  ASN203     -0.0877
     35  N         12.4480   42.6370   50.9540 N.3   323  HIS323     -0.1241
     36  CA        11.6590   41.6500   50.1910 C.3   323  HIS323      0.1621
     37  C         11.9720   40.2030   50.5260 C.2   323  HIS323      0.2264
     38  O         13.0030   39.9020   51.1250 O.2   323  HIS323     -0.2867
     39  CB        11.7520   41.9550   48.7020 C.3   323  HIS323      0.0745
     40  CG        13.0800   41.6830   48.0520 C.ar  323  HIS323      0.0817
     41  ND1       13.2380   40.5840   47.2330 N.ar  323  HIS323     -0.2268
     42  CD2       14.2090   42.4300   47.9090 C.ar  323  HIS323      0.1154
     43  CE1       14.4250   40.6460   46.6440 C.ar  323  HIS323      0.1986
     44  NE2       15.0650   41.7150   47.0920 N.ar  323  HIS323     -0.2212
     45  N         20.4990   37.6620   47.9960 N.3   333  ASP333     -0.1239
     46  CA        19.4280   38.6300   47.6150 C.3   333  ASP333      0.1674
     47  C         18.0860   37.8770   47.4590 C.2   333  ASP333      0.2266
     48  O         17.8990   37.1970   46.4150 O.2   333  ASP333     -0.2867
     49  CB        19.9020   39.2390   46.3060 C.3   333  ASP333      0.1410
     50  CG        18.8980   40.2010   45.7050 C.2   333  ASP333      0.3668
     51  OD1       17.9400   40.5630   46.4530 O.co2 333  ASP333     -0.2456
     52  OD2       19.0420   40.5330   44.5150 O.co2 333  ASP333     -0.2456
     53  N          9.4440   42.1900   44.5770 N.3   370  GLU370     -0.1231
     54  CA        10.4970   43.2730   44.5680 C.3   370  GLU370      0.1699
     55  C         11.2990   43.1210   43.3130 C.2   370  GLU370      0.2592
     56  O         11.6270   44.1150   42.5860 O.2   370  GLU370     -0.2718
     57  CB        11.3620   43.2980   45.8370 C.3   370  GLU370      0.0402
     58  CG        12.2400   44.5350   45.8700 C.3   370  GLU370      0.1161
     59  CD        13.6270   44.3400   45.3040 C.2   370  GLU370      0.3649
     60  OE1       13.9370   43.2350   44.7440 O.co2 370  GLU370     -0.2457
     61  OE2       14.4130   45.3130   45.3980 O.co2 370  GLU370     -0.2457
     62  N         11.5940   41.8500   42.9710 N.am  371  GLU371     -0.1979
     63  CA        12.4500   41.5830   41.7860 C.3   371  GLU371      0.1602
     64  C         11.8010   41.9820   40.4510 C.2   371  GLU371      0.2287
     65  O         12.4600   42.1640   39.4430 O.2   371  GLU371     -0.2864
     66  CB        12.9380   40.1180   41.7800 C.3   371  GLU371      0.0415
     67  CG        13.8420   39.7860   42.9890 C.3   371  GLU371      0.1163
     68  CD        15.2560   40.3740   42.8400 C.2   371  GLU371      0.3649
     69  OE1       15.5170   41.2010   41.9020 O.co2 371  GLU371     -0.2457
     70  OE2       16.1010   40.0490   43.7510 O.co2 371  GLU371     -0.2457
     71  N         10.0490   44.7660   39.9750 N.3   373  GLY373     -0.1210
     72  CA         9.9010   46.2220   39.9120 C.3   373  GLY373      0.1956
     73  C          9.3610   46.8640   41.1980 C.2   373  GLY373      0.2611
     74  O          8.6060   47.8610   41.0600 O.2   373  GLY373     -0.2717
     75  N          9.7190   46.3270   42.3640 N.am  374  LEU374     -0.1979
     76  CA         9.3150   46.9540   43.6770 C.3   374  LEU374      0.1596
     77  C          7.7880   46.9230   43.7730 C.2   374  LEU374      0.2287
     78  O          7.1350   47.7940   44.3800 O.2   374  LEU374     -0.2864
     79  CB         9.8770   48.4110   43.7470 C.3   374  LEU374      0.0297
     80  CG        11.2630   48.6790   43.1620 C.3   374  LEU374      0.0022
     81  CD1       11.5600   50.1670   43.4590 C.3   374  LEU374      0.0001
     82  CD2       12.2430   47.7840   43.9220 C.3   374  LEU374      0.0001
     83  N         17.0340   44.6620   52.5400 N.3   399  ASP399     -0.1225
     84  CA        17.4350   43.6950   51.4680 C.3   399  ASP399      0.1805
     85  C         18.7800   43.0510   51.9260 C.2   399  ASP399      0.2598
     86  O         19.1150   43.1420   53.1150 O.2   399  ASP399     -0.2718
     87  CB        17.5510   44.3720   50.1030 C.3   399  ASP399      0.1424
     88  CG        17.4080   43.3810   48.9440 C.2   399  ASP399      0.3668
     89  OD1       17.3400   42.1640   49.2430 O.co2 399  ASP399     -0.2456
     90  OD2       17.3420   43.8100   47.7730 O.co2 399  ASP399     -0.2456
     91  N         19.5510   42.5210   50.9830 N.am  400  SER400     -0.1952
     92  CA        20.8020   41.7660   51.2670 C.3   400  SER400      0.1924
     93  C         21.6680   42.3970   52.3890 C.2   400  SER400      0.2314
     94  O         22.0000   43.6080   52.3500 O.2   400  SER400     -0.2863
     95  CB        21.5960   41.6300   50.0110 C.3   400  SER400      0.2116
     96  OG        20.7720   41.1330   49.0100 O.3   400  SER400     -0.2180
     97  N         27.1140   42.0940   50.6660 N.3   403  GLU403     -0.1245
     98  CA        27.4390   41.9270   49.2510 C.3   403  GLU403      0.1567
     99  C         28.9680   41.8250   49.1670 C.2   403  GLU403      0.2260
    100  O         29.5570   41.8820   48.1030 O.2   403  GLU403     -0.2867
    101  CB        26.8730   43.0990   48.4440 C.3   403  GLU403      0.0388
    102  CG        27.4530   44.4670   48.8610 C.3   403  GLU403      0.1160
    103  CD        26.7710   45.6490   48.1380 C.2   403  GLU403      0.3649
    104  OE1       25.6830   45.4250   47.5400 O.co2 403  GLU403     -0.2457
    105  OE2       27.3210   46.7740   48.1800 O.co2 403  GLU403     -0.2457
    106  N         16.8400   54.6800   43.5320 N.3   463  SER463     -0.1202
    107  CA        15.8350   53.6660   43.5630 C.3   463  SER463      0.2020
    108  C         16.5040   52.2650   43.4710 C.2   463  SER463      0.2619
    109  O         17.6420   52.0950   43.8870 O.2   463  SER463     -0.2717
    110  CB        14.8120   53.8950   42.4720 C.3   463  SER463      0.2103
    111  OG        13.7740   52.9040   42.6350 O.3   463  SER463     -0.2182
    112  N         15.7800   51.3040   42.9040 N.am  464  GLY464     -0.1942
    113  CA        16.2900   49.9260   42.7820 C.3   464  GLY464      0.2014
    114  C         16.0840   49.1520   44.0910 C.2   464  GLY464      0.2638
    115  O         16.6850   48.0990   44.2980 O.2   464  GLY464     -0.2714
    116  N         15.2500   49.6520   45.0020 N.am  465  ASN465     -0.1972
    117  CA        14.8750   48.8500   46.2020 C.3   465  ASN465      0.1688
    118  C         13.5980   49.3660   46.8600 C.2   465  ASN465      0.2292
    119  O         13.0920   50.4260   46.4620 O.2   465  ASN465     -0.2864
    120  CB        16.0400   48.6800   47.1790 C.3   465  ASN465      0.1181
    121  CG        16.1440   47.2640   47.6900 C.2   465  ASN465      0.2629
    122  OD1       15.2590   46.7630   48.3980 O.2   465  ASN465     -0.2716
    123  ND2       17.2540   46.6150   47.3230 N.am  465  ASN465     -0.0877
    124  N         19.2180   52.7750   54.7520 N.3   480  ARG480     -0.1245
    125  CA        19.6200   51.3950   54.5280 C.3   480  ARG480      0.1563
    126  C         21.1070   51.2420   54.9180 C.2   480  ARG480      0.2260
    127  O         21.8950   52.2190   54.8470 O.2   480  ARG480     -0.2867
    128  CB        19.3730   51.0310   53.0730 C.3   480  ARG480      0.0307
    129  CG        20.1790   51.7700   52.0470 C.3   480  ARG480      0.0489
    130  CD        19.6760   51.5070   50.6010 C.3   480  ARG480      0.2205
    131  NE        19.7230   50.0800   50.2320 N.pl3 480  ARG480     -0.0865
    132  CZ        19.7920   49.6390   48.9760 C.cat 480  ARG480      0.5346
    133  NH1       19.7690   48.3130   48.7330 N.pl3 480  ARG480      0.1354
    134  NH2       19.8190   50.5120   47.9710 N.pl3 480  ARG480      0.1354
    135  N         24.2970   47.9380   54.9060 N.3   482  ARG482     -0.1245
    136  CA        24.6720   46.5350   54.6510 C.3   482  ARG482      0.1563
    137  C         26.1870   46.4890   54.6880 C.2   482  ARG482      0.2260
    138  O         26.8550   47.5140   54.5780 O.2   482  ARG482     -0.2867
    139  CB        24.0920   46.1400   53.2900 C.3   482  ARG482      0.0307
    140  CG        24.4460   47.1180   52.0700 C.3   482  ARG482      0.0489
    141  CD        23.3310   48.2030   51.8960 C.3   482  ARG482      0.2205
    142  NE        23.3620   48.8300   50.5710 N.pl3 482  ARG482     -0.0865
    143  CZ        23.5170   50.1410   50.3670 C.cat 482  ARG482      0.5346
    144  NH1       23.6840   50.9490   51.4060 N.pl3 482  ARG482      0.1354
    145  NH2       23.5050   50.6280   49.1320 N.pl3 482  ARG482      0.1354
    146  N         26.8820   44.7140   41.0940 N.3   494  GLY494     -0.1210
    147  CA        26.5020   43.4620   41.7800 C.3   494  GLY494      0.1956
    148  C         27.7890   42.6800   42.0390 C.2   494  GLY494      0.2611
    149  O         28.8100   42.8840   41.3140 O.2   494  GLY494     -0.2717
    150  N         27.7540   41.8640   43.1020 N.am  495  TYR495     -0.1976
    151  CA        28.7660   40.8510   43.4060 C.3   495  TYR495      0.1639
    152  C         28.7030   39.7910   42.2860 C.2   495  TYR495      0.2290
    153  O         27.7330   39.7290   41.5480 O.2   495  TYR495     -0.2864
    154  CB        28.4710   40.2050   44.7660 C.3   495  TYR495      0.0560
    155  CG        26.9980   39.8590   44.9710 C.ar  495  TYR495     -0.0198
    156  CD1       26.5090   38.5610   44.7280 C.ar  495  TYR495     -0.0009
    157  CD2       26.0660   40.8520   45.3400 C.ar  495  TYR495     -0.0009
    158  CE1       25.1280   38.2280   44.8930 C.ar  495  TYR495      0.0417
    159  CE2       24.7270   40.5270   45.4980 C.ar  495  TYR495      0.0417
    160  CZ        24.2470   39.2530   45.2590 C.ar  495  TYR495      0.1957
    161  OH        22.9050   38.9570   45.4410 O.3   495  TYR495     -0.2866
    162  N         25.5140   37.4520   41.5900 N.3   498  TYR498     -0.1227
    163  CA        24.1980   38.1670   41.6110 C.3   498  TYR498      0.1736
    164  C         23.1600   37.5690   40.6170 C.2   498  TYR498      0.2595
    165  O         23.3800   37.5740   39.3900 O.2   498  TYR498     -0.2718
    166  CB        24.5360   39.6320   41.2920 C.3   498  TYR498      0.0548
    167  CG        23.3560   40.6060   41.2470 C.ar  498  TYR498     -0.0200
    168  CD1       22.4970   40.7810   42.3630 C.ar  498  TYR498     -0.0009
    169  CD2       23.1130   41.3460   40.0700 C.ar  498  TYR498     -0.0009
    170  CE1       21.3860   41.7200   42.2410 C.ar  498  TYR498      0.0417
    171  CE2       22.0310   42.2740   39.9810 C.ar  498  TYR498      0.0417
    172  CZ        21.2140   42.4430   41.0540 C.ar  498  TYR498      0.1957
    173  OH        20.1640   43.3390   40.8990 O.3   498  TYR498     -0.2866
    174  N         22.0130   37.1090   41.1470 N.am  499  HIS499     -0.1975
    175  CA        20.8280   36.7110   40.3610 C.3   499  HIS499      0.1656
    176  C         21.0540   35.4200   39.5010 C.2   499  HIS499      0.2291
    177  O         20.3360   35.1820   38.5100 O.2   499  HIS499     -0.2864
    178  CB        20.3620   37.8230   39.4080 C.3   499  HIS499      0.0771
    179  CG        19.5840   38.9120   40.1070 C.ar  499  HIS499      0.0820
    180  ND1       18.9870   39.9570   39.4250 N.ar  499  HIS499     -0.2267
    181  CD2       19.3630   39.1460   41.4280 C.ar  499  HIS499      0.1154
    182  CE1       18.3860   40.7620   40.2880 C.ar  499  HIS499      0.1986
    183  NE2       18.5570   40.2750   41.5040 N.ar  499  HIS499     -0.2212
    184  N         18.8670   54.1020   37.4780 N.3   643  LYS643     -0.1231
    185  CA        17.9080   54.0030   38.6220 C.3   643  LYS643      0.1693
    186  C         18.5670   53.7160   39.9480 C.2   643  LYS643      0.2592
    187  O         18.0780   54.1520   41.0030 O.2   643  LYS643     -0.2718
    188  CB        16.9310   52.8490   38.3010 C.3   643  LYS643      0.0285
    189  CG        15.8420   52.6580   39.2530 C.3   643  LYS643      0.0035
    190  CD        14.8740   51.6450   38.6200 C.3   643  LYS643      0.0206
    191  CE        13.5420   51.8860   39.2790 C.3   643  LYS643      0.1093
    192  NZ        12.6770   50.7350   39.0340 N.3   643  LYS643     -0.1314
    193  N         19.7250   53.0120   39.9450 N.am  644  TYR644     -0.1976
    194  CA        20.3630   52.6570   41.2110 C.3   644  TYR644      0.1639
    195  C         21.0040   53.8410   41.9590 C.2   644  TYR644      0.2290
    196  O         21.2150   53.7650   43.1340 O.2   644  TYR644     -0.2864
    197  CB        21.4990   51.6930   40.9830 C.3   644  TYR644      0.0560
    198  CG        21.0720   50.2790   40.5730 C.ar  644  TYR644     -0.0198
    199  CD1       19.9380   49.6690   41.1020 C.ar  644  TYR644     -0.0009
    200  CD2       21.8940   49.5300   39.7000 C.ar  644  TYR644     -0.0009
    201  CE1       19.5670   48.3200   40.7530 C.ar  644  TYR644      0.0417
    202  CE2       21.5610   48.2080   39.3380 C.ar  644  TYR644      0.0417
    203  CZ        20.4140   47.6000   39.8740 C.ar  644  TYR644      0.1957
    204  OH        20.0690   46.3000   39.5120 O.3   644  TYR644     -0.2866
@<TRIPOS>BOND
     1    15    14    2
     2    14    13    1
     3    13    16    1
     4    13    12    1
     5    16    17    1
     6     4     3    2
     7    17    18    1
     8    26    25    2
     9    18    19    1
    10    29    30    2
    11    29    28    1
    12    12     3   am
    13     3     2    1
    14    28    27    1
    15    28    31    1
    16    25    27   am
    17    25    24    1
    18    19    20    2
    19    10     8   ar
    20    10    11   ar
    21    23    24    1
    22     8     6   ar
    23    33    32    2
    24    31    32    1
    25     2     1    1
    26     2     5    1
    27    11     9   ar
    28     6     5    1
    29     6     7   ar
    30    32    34   am
    31    20    21    1
    32    20    22    1
    33     9     7   ar
    34   184   185    1
    35   188   185    1
    36   188   189    1
    37   177   176    2
    38   190   189    1
    39   190   191    1
    40   185   186    1
    41   192   191    1
    42   202   200   ar
    43   202   203   ar
    44   165   164    2
    45   178   179    1
    46   178   175    1
    47   180   179   ar
    48   180   182   ar
    49    65    64    2
    50   176   175    1
    51   204   203    1
    52   200   198   ar
    53   203   201   ar
    54    72    71    1
    55    72    73    1
    56   193   186   am
    57   193   194    1
    58   186   187    2
    59   171   169   ar
    60   171   172   ar
    61   169   167   ar
    62   179   181   ar
    63   182   183   ar
    64   175   174    1
    65    64    63    1
    66   198   197    1
    67   198   199   ar
    68   164   174   am
    69   164   163    1
    70   201   199   ar
    71   173   172    1
    72   197   194    1
    73   172   170   ar
    74    74    73    2
    75   146   147    1
    76    73    75   am
    77   194   195    1
    78   167   166    1
    79   167   168   ar
    80   166   163    1
    81   149   148    2
    82   181   183   ar
    83   153   152    2
    84   162   163    1
    85   147   148    1
    86    66    63    1
    87    66    67    1
    88    63    62    1
    89    69    68   ar
    90   195   196    2
    91   148   150   am
    92   170   168   ar
    93   152   151    1
    94    75    76    1
    95   110   111    1
    96   110   107    1
    97    56    55    2
    98   113   112    1
    99   113   114    1
   100    68    67    1
   101    68    70   ar
   102   112   108   am
   103    62    55   am
   104   150   151    1
   105    80    81    1
   106    80    79    1
   107    80    82    1
   108    55    54    1
   109   151   154    1
   110   108   107    1
   111   108   109    2
   112   106   107    1
   113    76    79    1
   114    76    77    1
   115    77    78    2
   116   114   115    2
   117   114   116   am
   118    52    50   ar
   119    54    53    1
   120    54    57    1
   121   156   158   ar
   122   156   155   ar
   123    60    59   ar
   124   154   155    1
   125   158   160   ar
   126   155   157   ar
   127   116   117    1
   128   160   161    1
   129   160   159   ar
   130    59    61   ar
   131    59    58    1
   132   157   159   ar
   133    50    49    1
   134    50    51   ar
   135    57    58    1
   136   117   118    1
   137   117   120    1
   138    49    46    1
   139    48    47    2
   140   119   118    2
   141    43    44   ar
   142    43    41   ar
   143    44    42   ar
   144   120   121    1
   145    41    40   ar
   146   123   121   am
   147    47    46    1
   148   104   103   ar
   149    46    45    1
   150   121   122    2
   151    90    88   ar
   152    42    40   ar
   153   134   132    1
   154    40    39    1
   155   100    99    2
   156   103   105   ar
   157   103   102    1
   158   101   102    1
   159   101    98    1
   160    39    36    1
   161   133   132    1
   162    88    89   ar
   163    88    87    1
   164   132   131    2
   165    96    95    1
   166   145   143    1
   167    99    98    1
   168    98    97    1
   169    95    92    1
   170    87    84    1
   171    36    37    1
   172    36    35    1
   173   131   130    1
   174   143   142    2
   175   143   144    1
   176    37    38    2
   177   142   141    1
   178   130   129    1
   179    91    92    1
   180    91    85   am
   181    92    93    1
   182    84    85    1
   183    84    83    1
   184   141   140    1
   185    85    86    2
   186   129   128    1
   187   140   139    1
   188    94    93    2
   189   128   125    1
   190   139   136    1
   191   125   124    1
   192   125   126    1
   193   138   137    2
   194   136   137    1
   195   136   135    1
   196   127   126    2
