@<TRIPOS>MOLECULE
tmp/3bi2B01.pdb
 176 175 0 0 0
SMALL
GASTEIGER

@<TRIPOS>ATOM
      1  N         52.5720  -58.1740   45.8560 N.3    58  TRP58      -0.1241
      2  CA        53.5880  -57.1930   45.5000 C.3    58  TRP58       0.1605
      3  C         55.0410  -57.5830   45.6830 C.2    58  TRP58       0.2264
      4  O         55.3760  -58.4690   46.4830 O.2    58  TRP58      -0.2867
      5  CB        53.3980  -55.9240   46.3280 C.3    58  TRP58       0.0550
      6  CG        52.1700  -55.1510   46.0470 C.ar   58  TRP58       0.0003
      7  CD1       52.0100  -54.1910   45.1000 C.ar   58  TRP58       0.0946
      8  CD2       50.9310  -55.2360   46.7540 C.ar   58  TRP58       0.0152
      9  NE1       50.7430  -53.6620   45.1730 N.ar   58  TRP58      -0.2442
     10  CE2       50.0600  -54.2880   46.1810 C.ar   58  TRP58       0.0810
     11  CE3       50.4720  -56.0230   47.8210 C.ar   58  TRP58       0.0012
     12  CZ2       48.7500  -54.1020   46.6370 C.ar   58  TRP58       0.0191
     13  CZ3       49.1660  -55.8370   48.2750 C.ar   58  TRP58       0.0001
     14  CH2       48.3240  -54.8850   47.6820 C.ar   58  TRP58       0.0015
     15  N         58.0870  -55.8690   47.0650 N.3    60  HIS60      -0.1241
     16  CA        58.3640  -54.7140   47.9160 C.3    60  HIS60       0.1621
     17  C         59.8360  -54.3340   47.7690 C.2    60  HIS60       0.2264
     18  O         60.6380  -55.1160   47.2410 O.2    60  HIS60      -0.2867
     19  CB        58.0840  -55.0410   49.3930 C.3    60  HIS60       0.0745
     20  CG        56.6460  -55.3330   49.7000 C.ar   60  HIS60       0.0817
     21  ND1       55.6420  -54.4040   49.5290 N.ar   60  HIS60      -0.2268
     22  CD2       56.0430  -56.4590   50.1570 C.ar   60  HIS60       0.1154
     23  CE1       54.4830  -54.9460   49.8630 C.ar   60  HIS60       0.1986
     24  NE2       54.6980  -56.1930   50.2480 N.ar   60  HIS60      -0.2212
     25  N         46.5040  -42.4590   48.1850 N.3    90  PHE90      -0.1241
     26  CA        45.4080  -43.1220   48.8790 C.3    90  PHE90       0.1605
     27  C         44.1720  -42.2690   49.0880 C.2    90  PHE90       0.2264
     28  O         44.2590  -41.0770   49.3680 O.2    90  PHE90      -0.2867
     29  CB        45.8710  -43.6400   50.2450 C.3    90  PHE90       0.0534
     30  CG        46.5850  -44.9550   50.1910 C.ar   90  PHE90      -0.0203
     31  CD1       47.8710  -45.0460   49.6790 C.ar   90  PHE90      -0.0042
     32  CD2       45.9710  -46.1060   50.6630 C.ar   90  PHE90      -0.0042
     33  CE1       48.5390  -46.2730   49.6400 C.ar   90  PHE90      -0.0003
     34  CE2       46.6290  -47.3350   50.6290 C.ar   90  PHE90      -0.0003
     35  CZ        47.9170  -47.4150   50.1160 C.ar   90  PHE90      -0.0000
     36  N         46.0050  -47.9420   58.8920 N.3   163  TYR163     -0.1241
     37  CA        46.2590  -48.6490   57.6390 C.3   163  TYR163      0.1605
     38  C         47.4690  -49.5550   57.8540 C.2   163  TYR163      0.2264
     39  O         47.6330  -50.5550   57.1660 O.2   163  TYR163     -0.2867
     40  CB        46.5390  -47.6660   56.4860 C.3   163  TYR163      0.0534
     41  CG        47.8170  -46.8620   56.6130 C.ar  163  TYR163     -0.0201
     42  CD1       49.0660  -47.4280   56.3310 C.ar  163  TYR163     -0.0009
     43  CD2       47.7800  -45.5330   57.0320 C.ar  163  TYR163     -0.0009
     44  CE1       50.2450  -46.6840   56.4690 C.ar  163  TYR163      0.0417
     45  CE2       48.9490  -44.7810   57.1750 C.ar  163  TYR163      0.0417
     46  CZ        50.1760  -45.3580   56.8930 C.ar  163  TYR163      0.1957
     47  OH        51.3200  -44.5950   57.0380 O.3   163  TYR163     -0.2866
     48  N         47.0840  -53.3180   58.1020 N.3   166  LEU166     -0.1231
     49  CA        47.0820  -54.1500   56.9070 C.3   166  LEU166      0.1693
     50  C         48.4790  -54.5200   56.4200 C.2   166  LEU166      0.2592
     51  O         48.6250  -55.2970   55.4880 O.2   166  LEU166     -0.2718
     52  CB        46.2870  -53.4830   55.7770 C.3   166  LEU166      0.0284
     53  CG        44.7650  -53.4050   55.9650 C.3   166  LEU166      0.0019
     54  CD1       44.3020  -54.6460   56.7130 C.3   166  LEU166      0.0001
     55  CD2       44.3670  -52.1530   56.7390 C.3   166  LEU166      0.0001
     56  N         49.5090  -53.9760   57.0530 N.am  167  TRP167     -0.1962
     57  CA        50.8740  -54.3040   56.6690 C.3   167  TRP167      0.1771
     58  C         51.4200  -55.4600   57.5180 C.2   167  TRP167      0.2619
     59  O         52.3080  -56.1900   57.0900 O.2   167  TRP167     -0.2715
     60  CB        51.7760  -53.0660   56.7950 C.3   167  TRP167      0.0590
     61  CG        52.4540  -52.7120   55.4980 C.ar  167  TRP167      0.0006
     62  CD1       53.2720  -53.5220   54.7420 C.ar  167  TRP167      0.0946
     63  CD2       52.3530  -51.4780   54.7870 C.ar  167  TRP167      0.0152
     64  NE1       53.6820  -52.8610   53.6050 N.ar  167  TRP167     -0.2442
     65  CE2       53.1320  -51.6050   53.6080 C.ar  167  TRP167      0.0810
     66  CE3       51.6840  -50.2770   55.0280 C.ar  167  TRP167      0.0012
     67  CZ2       53.2530  -50.5720   52.6770 C.ar  167  TRP167      0.0191
     68  CZ3       51.8050  -49.2480   54.1060 C.ar  167  TRP167      0.0001
     69  CH2       52.5850  -49.4020   52.9420 C.ar  167  TRP167      0.0015
     70  N         50.8740  -55.6330   58.7170 N.am  168  HIS168     -0.1973
     71  CA        51.2970  -56.7070   59.6140 C.3   168  HIS168      0.1656
     72  C         50.2070  -57.7780   59.7070 C.2   168  HIS168      0.2291
     73  O         50.4810  -58.9240   60.0540 O.2   168  HIS168     -0.2864
     74  CB        51.5650  -56.1460   61.0160 C.3   168  HIS168      0.0771
     75  CG        52.6620  -55.1300   61.0610 C.ar  168  HIS168      0.0820
     76  ND1       53.9940  -55.4690   60.9750 N.ar  168  HIS168     -0.2267
     77  CD2       52.6210  -53.7780   61.1250 C.ar  168  HIS168      0.1154
     78  CE1       54.7260  -54.3700   60.9790 C.ar  168  HIS168      0.1986
     79  NE2       53.9160  -53.3290   61.0690 N.ar  168  HIS168     -0.2212
     80  N         57.8690  -52.5710   66.1990 N.3   179  ASP179     -0.1239
     81  CA        57.9900  -53.1170   64.8570 C.3   179  ASP179      0.1674
     82  C         56.9670  -52.5320   63.8870 C.2   179  ASP179      0.2266
     83  O         57.0030  -52.8170   62.6880 O.2   179  ASP179     -0.2867
     84  CB        57.8690  -54.6470   64.9050 C.3   179  ASP179      0.1410
     85  CG        58.3900  -55.3180   63.6360 C.2   179  ASP179      0.3668
     86  OD1       59.5950  -55.1660   63.3230 O.co2 179  ASP179     -0.2456
     87  OD2       57.5930  -55.9960   62.9490 O.co2 179  ASP179     -0.2456
     88  N         58.4620  -49.4240   59.4650 N.3   182  PHE182     -0.1241
     89  CA        59.6330  -49.9820   58.8100 C.3   182  PHE182      0.1605
     90  C         59.9710  -49.1560   57.5850 C.2   182  PHE182      0.2264
     91  O         59.1220  -48.4440   57.0520 O.2   182  PHE182     -0.2867
     92  CB        59.3990  -51.4490   58.4110 C.3   182  PHE182      0.0534
     93  CG        58.1560  -51.6720   57.5990 C.ar  182  PHE182     -0.0203
     94  CD1       57.9540  -50.9900   56.4010 C.ar  182  PHE182     -0.0042
     95  CD2       57.1810  -52.5630   58.0380 C.ar  182  PHE182     -0.0042
     96  CE1       56.8010  -51.1870   55.6510 C.ar  182  PHE182     -0.0003
     97  CE2       56.0230  -52.7720   57.3000 C.ar  182  PHE182     -0.0003
     98  CZ        55.8310  -52.0810   56.1020 C.ar  182  PHE182     -0.0000
     99  N         47.1400  -61.6260   57.7310 N.3   287  LEU287     -0.1245
    100  CA        46.6500  -60.7750   56.6530 C.3   287  LEU287      0.1561
    101  C         45.7260  -61.6760   55.8440 C.2   287  LEU287      0.2260
    102  O         46.0740  -62.8170   55.5630 O.2   287  LEU287     -0.2867
    103  CB        47.7990  -60.3000   55.7620 C.3   287  LEU287      0.0270
    104  CG        47.4300  -59.2540   54.7130 C.3   287  LEU287      0.0019
    105  CD1       46.9780  -57.9700   55.4120 C.3   287  LEU287      0.0001
    106  CD2       48.6320  -58.9730   53.8140 C.3   287  LEU287      0.0001
    107  N         41.4610  -52.2310   53.4730 N.3   347  PHE347     -0.1241
    108  CA        42.2800  -51.7410   52.3780 C.3   347  PHE347      0.1605
    109  C         41.7940  -52.3050   51.0470 C.2   347  PHE347      0.2264
    110  O         41.8780  -53.5090   50.7900 O.2   347  PHE347     -0.2867
    111  CB        43.7450  -52.1140   52.6380 C.3   347  PHE347      0.0534
    112  CG        44.6670  -51.7590   51.5160 C.ar  347  PHE347     -0.0203
    113  CD1       44.5660  -50.5310   50.8790 C.ar  347  PHE347     -0.0042
    114  CD2       45.6400  -52.6540   51.0920 C.ar  347  PHE347     -0.0042
    115  CE1       45.4260  -50.2010   49.8280 C.ar  347  PHE347     -0.0003
    116  CE2       46.5070  -52.3330   50.0420 C.ar  347  PHE347     -0.0003
    117  CZ        46.3990  -51.1070   49.4100 C.ar  347  PHE347     -0.0000
    118  N         42.1050  -56.3160   51.5010 N.3   363  LEU363     -0.1245
    119  CA        42.9730  -56.8910   52.5240 C.3   363  LEU363      0.1561
    120  C         42.3460  -56.6400   53.9000 C.2   363  LEU363      0.2260
    121  O         41.7540  -55.5760   54.1370 O.2   363  LEU363     -0.2867
    122  CB        44.3710  -56.2710   52.4540 C.3   363  LEU363      0.0270
    123  CG        45.2820  -56.8690   51.3700 C.3   363  LEU363      0.0019
    124  CD1       44.6490  -56.6880   49.9880 C.3   363  LEU363      0.0001
    125  CD2       46.6380  -56.2090   51.4230 C.3   363  LEU363      0.0001
    126  N         52.0650  -64.5680   57.9040 N.3   438  TYR438     -0.1227
    127  CA        53.5120  -64.4900   57.9810 C.3   438  TYR438      0.1736
    128  C         53.9440  -63.9290   59.3240 C.2   438  TYR438      0.2596
    129  O         53.1110  -63.4820   60.1190 O.2   438  TYR438     -0.2718
    130  CB        54.0730  -63.6120   56.8490 C.3   438  TYR438      0.0548
    131  CG        53.3490  -62.2920   56.6470 C.ar  438  TYR438     -0.0200
    132  CD1       52.2250  -62.2090   55.8170 C.ar  438  TYR438     -0.0009
    133  CD2       53.7690  -61.1320   57.3000 C.ar  438  TYR438     -0.0009
    134  CE1       51.5390  -61.0120   55.6440 C.ar  438  TYR438      0.0417
    135  CE2       53.0850  -59.9230   57.1340 C.ar  438  TYR438      0.0417
    136  CZ        51.9670  -59.8710   56.3060 C.ar  438  TYR438      0.1957
    137  OH        51.2580  -58.6910   56.1680 O.3   438  TYR438     -0.2866
    138  N         55.2510  -63.9620   59.5650 N.am  439  SER439     -0.1938
    139  CA        55.8310  -63.4610   60.8050 C.3   439  SER439      0.2055
    140  C         55.2640  -62.1060   61.1840 C.2   439  SER439      0.2643
    141  O         54.9900  -61.2790   60.3150 O.2   439  SER439     -0.2714
    142  CB        57.3460  -63.3270   60.6620 C.3   439  SER439      0.2130
    143  OG        57.9380  -64.5680   60.3460 O.3   439  SER439     -0.2179
    144  N         55.1110  -61.8830   62.4870 N.am  440  ALA440     -0.1963
    145  CA        54.5900  -60.6250   63.0130 C.3   440  ALA440      0.1728
    146  C         54.9570  -60.5250   64.4920 C.2   440  ALA440      0.2616
    147  O         55.1640  -61.5440   65.1500 O.2   440  ALA440     -0.2715
    148  CB        53.0830  -60.5580   62.8360 C.3   440  ALA440      0.0334
    149  N         55.0270  -59.3020   65.0100 N.am  441  CYS441     -0.1968
    150  CA        55.4020  -59.0790   66.4000 C.3   441  CYS441      0.1712
    151  C         54.2890  -58.5790   67.3180 C.2   441  CYS441      0.2296
    152  O         53.5920  -57.6170   67.0020 O.2   441  CYS441     -0.2864
    153  CB        56.5560  -58.0770   66.4710 C.3   441  CYS441      0.0983
    154  SG        58.0780  -58.5800   65.6550 S.3   441  CYS441     -0.0798
    155  N         62.1820  -60.1020   66.8700 N.3   447  PRO447     -0.2116
    156  CA        62.3950  -61.0280   65.7520 C.3   447  PRO447      0.1372
    157  C         63.8290  -61.4900   65.5010 C.2   447  PRO447      0.2244
    158  O         64.0380  -62.5730   64.9550 O.2   447  PRO447     -0.2868
    159  CB        61.8300  -60.2590   64.5670 C.3   447  PRO447      0.0268
    160  CG        62.1610  -58.8450   64.9220 C.3   447  PRO447      0.0207
    161  CD        61.7430  -58.7880   66.3690 C.3   447  PRO447      0.0892
    162  N         62.4490  -59.8650   55.6640 N.3   474  ALA474     -0.1231
    163  CA        61.6880  -60.6300   56.6420 C.3   474  ALA474      0.1694
    164  C         60.1990  -60.5500   56.3340 C.2   474  ALA474      0.2593
    165  O         59.6480  -59.4600   56.1720 O.2   474  ALA474     -0.2718
    166  CB        61.9520  -60.0980   58.0480 C.3   474  ALA474      0.0304
    167  N         59.5600  -61.7130   56.2550 N.am  475  GLY475     -0.1942
    168  CA        58.1380  -61.7760   55.9920 C.3   475  GLY475      0.2014
    169  C         57.7240  -61.5690   54.5490 C.2   475  GLY475      0.2639
    170  O         56.5390  -61.6390   54.2460 O.2   475  GLY475     -0.2714
    171  N         58.6900  -61.3320   53.6630 N.am  476  CYS476     -0.1967
    172  CA        58.4140  -61.0940   52.2460 C.3   476  CYS476      0.1712
    173  C         58.7920  -62.2560   51.3550 C.2   476  CYS476      0.2296
    174  O         59.5470  -63.1410   51.7460 O.2   476  CYS476     -0.2864
    175  CB        59.1720  -59.8530   51.7560 C.3   476  CYS476      0.0983
    176  SG        58.6400  -58.3070   52.5180 S.3   476  CYS476     -0.0798
@<TRIPOS>BOND
     1     7     9   ar
     2     7     6   ar
     3     9    10   ar
     4     2     3    1
     5     2     1    1
     6     2     5    1
     7     3     4    2
     8     6     5    1
     9     6     8   ar
    10    10    12   ar
    11    10     8   ar
    12    12    14   ar
    13     8    11   ar
    14    15    16    1
    15    18    17    2
    16    14    13   ar
    17    17    16    1
    18    11    13   ar
    19    16    19    1
    20    25    26    1
    21    26    27    1
    22    26    29    1
    23    27    28    2
    24    19    20    1
    25   117   115   ar
    26   117   116   ar
    27    21    20   ar
    28    21    23   ar
    29    33    31   ar
    30    33    35   ar
    31    31    30   ar
    32    20    22   ar
    33   115   113   ar
    34    23    24   ar
    35   124   123    1
    36   116   114   ar
    37    35    34   ar
    38    22    24   ar
    39    30    29    1
    40    30    32   ar
    41    34    32   ar
    42   110   109    2
    43   113   112   ar
    44   109   108    1
    45   114   112   ar
    46   173   174    2
    47   173   172    1
    48   123   125    1
    49   123   122    1
    50   118   119    1
    51   112   111    1
    52   175   172    1
    53   175   176    1
    54   172   171    1
    55   108   111    1
    56   108   107    1
    57   122   119    1
    58   119   120    1
    59    67    69   ar
    60    67    65   ar
    61    69    68   ar
    62    64    65   ar
    63    64    62   ar
    64    65    63   ar
    65   171   169   am
    66   106   104    1
    67   120   121    2
    68    68    66   ar
    69   170   169    2
    70   169   168    1
    71   104   105    1
    72   104   103    1
    73    62    61   ar
    74    63    66   ar
    75    63    61   ar
    76    51    50    2
    77    61    60    1
    78   102   101    2
    79   134   132   ar
    80   134   136   ar
    81    96    98   ar
    82    96    94   ar
    83   162   163    1
    84   103   100    1
    85    52    53    1
    86    52    49    1
    87   132   131   ar
    88   101   100    1
    89    53    54    1
    90    53    55    1
    91   168   167    1
    92    98    97   ar
    93   137   136    1
    94   165   164    2
    95   167   164   am
    96   136   135   ar
    97    42    44   ar
    98    42    41   ar
    99   164   163    1
   100    94    93   ar
   101    50    49    1
   102    50    56   am
   103    44    46   ar
   104    40    41    1
   105    40    37    1
   106    41    43   ar
   107   163   166    1
   108   131   130    1
   109   131   133   ar
   110   100    99    1
   111    57    60    1
   112    57    56    1
   113    57    58    1
   114   130   127    1
   115    46    47    1
   116    46    45   ar
   117    49    48    1
   118    43    45   ar
   119    91    90    2
   120    59    58    2
   121   135   133   ar
   122    39    38    2
   123    97    95   ar
   124    58    70   am
   125    90    89    1
   126    93    95   ar
   127    93    92    1
   128    37    38    1
   129    37    36    1
   130   126   127    1
   131   127   128    1
   132    92    89    1
   133    70    71    1
   134    89    88    1
   135   128   138   am
   136   128   129    2
   137   138   139    1
   138    71    72    1
   139    71    74    1
   140    72    73    2
   141   141   140    2
   142   143   142    1
   143   142   139    1
   144   139   140    1
   145    76    78   ar
   146    76    75   ar
   147    78    79   ar
   148    74    75    1
   149    75    77   ar
   150    79    77   ar
   151   140   144   am
   152   144   145    1
   153    83    82    2
   154   148   145    1
   155    87    85   ar
   156   145   146    1
   157    86    85   ar
   158    85    84    1
   159    82    81    1
   160   146   149   am
   161   146   147    2
   162   159   160    1
   163   159   156    1
   164    81    84    1
   165    81    80    1
   166   160   161    1
   167   158   157    2
   168   149   150    1
   169   157   156    1
   170   154   153    1
   171   156   155    1
   172   161   155    1
   173   150   153    1
   174   150   151    1
   175   152   151    2
