@<TRIPOS>MOLECULE
tmp/3bi4B01.pdb
 165 163 0 0 0
SMALL
GASTEIGER

@<TRIPOS>ATOM
      1  N         50.5130   11.2190   31.6220 N.3    58  TRP58      -0.1241
      2  CA        50.0430   12.2150   30.6540 C.3    58  TRP58       0.1605
      3  C         50.1220   13.6830   31.0410 C.2    58  TRP58       0.2264
      4  O         50.1220   14.0360   32.2190 O.2    58  TRP58      -0.2867
      5  CB        48.5730   11.9540   30.3050 C.3    58  TRP58       0.0550
      6  CG        48.2870   10.7250   29.5190 C.ar   58  TRP58       0.0003
      7  CD1       48.3780   10.5740   28.1630 C.ar   58  TRP58       0.0946
      8  CD2       47.8090    9.4790   30.0340 C.ar   58  TRP58       0.0152
      9  NE1       47.9790    9.3080   27.8030 N.ar   58  TRP58      -0.2442
     10  CE2       47.6260    8.6150   28.9320 C.ar   58  TRP58       0.0810
     11  CE3       47.5120    9.0090   31.3220 C.ar   58  TRP58       0.0012
     12  CZ2       47.1590    7.3000   29.0770 C.ar   58  TRP58       0.0191
     13  CZ3       47.0450    7.6980   31.4670 C.ar   58  TRP58       0.0001
     14  CH2       46.8740    6.8640   30.3500 C.ar   58  TRP58       0.0015
     15  N         47.8620   16.5830   30.8830 N.3    60  HIS60      -0.1241
     16  CA        46.4480   16.8580   30.6640 C.3    60  HIS60       0.1621
     17  C         46.2430   18.3340   30.3320 C.2    60  HIS60       0.2264
     18  O         47.1300   19.1560   30.5560 O.2    60  HIS60      -0.2867
     19  CB        45.6290   16.5070   31.9190 C.3    60  HIS60       0.0745
     20  CG        45.5900   15.0410   32.2290 C.ar   60  HIS60       0.0817
     21  ND1       45.1110   14.1050   31.3390 N.ar   60  HIS60      -0.2268
     22  CD2       45.9580   14.3530   33.3370 C.ar   60  HIS60       0.1154
     23  CE1       45.1860   12.9020   31.8840 C.ar   60  HIS60       0.1986
     24  NE2       45.6950   13.0260   33.0960 N.ar   60  HIS60      -0.2212
     25  N         38.0770    5.3170   21.3540 N.3    90  PHE90      -0.1241
     26  CA        38.0150    4.2320   22.3150 C.3    90  PHE90       0.1605
     27  C         37.3940    2.9360   21.8170 C.2    90  PHE90       0.2264
     28  O         36.3280    2.9240   21.1940 O.2    90  PHE90      -0.2867
     29  CB        37.2650    4.6800   23.5710 C.3    90  PHE90       0.0534
     30  CG        38.1300    5.3730   24.5850 C.ar   90  PHE90      -0.0203
     31  CD1       38.7420    6.5840   24.2910 C.ar   90  PHE90      -0.0042
     32  CD2       38.3200    4.8170   25.8470 C.ar   90  PHE90      -0.0042
     33  CE1       39.5310    7.2370   25.2400 C.ar   90  PHE90      -0.0003
     34  CE2       39.1100    5.4630   26.8040 C.ar   90  PHE90      -0.0003
     35  CZ        39.7140    6.6750   26.4980 C.ar   90  PHE90      -0.0000
     36  N         38.3820    5.3780   36.0480 N.3   163  LEU163     -0.1231
     37  CA        39.8160    5.4150   35.8050 C.3   163  LEU163      0.1693
     38  C         40.3910    6.8290   35.7190 C.2   163  LEU163      0.2592
     39  O         41.5920    7.0020   35.4910 O.2   163  LEU163     -0.2718
     40  CB        40.1790    4.6110   34.5450 C.3   163  LEU163      0.0284
     41  CG        40.0370    3.0810   34.6360 C.3   163  LEU163      0.0019
     42  CD1       40.5140    2.6030   36.0090 C.3   163  LEU163      0.0001
     43  CD2       38.5900    2.6680   34.4220 C.3   163  LEU163      0.0001
     44  N         39.5430    7.8420   35.8910 N.am  164  TRP164     -0.1962
     45  CA        40.0160    9.2260   35.8900 C.3   164  TRP164      0.1771
     46  C         40.1400    9.6790   37.3400 C.2   164  TRP164      0.2619
     47  O         40.9750   10.5140   37.6760 O.2   164  TRP164     -0.2715
     48  CB        39.0480   10.1670   35.1500 C.3   164  TRP164      0.0590
     49  CG        39.3310   10.3000   33.6840 C.ar  164  TRP164      0.0006
     50  CD1       38.8330    9.5230   32.6770 C.ar  164  TRP164      0.0946
     51  CD2       40.2480   11.2190   33.0650 C.ar  164  TRP164      0.0152
     52  NE1       39.3860    9.8950   31.4720 N.ar  164  TRP164     -0.2442
     53  CE2       40.2570   10.9320   31.6800 C.ar  164  TRP164      0.0810
     54  CE3       41.0660   12.2510   33.5470 C.ar  164  TRP164      0.0012
     55  CZ2       41.0520   11.6430   30.7690 C.ar  164  TRP164      0.0191
     56  CZ3       41.8560   12.9550   32.6440 C.ar  164  TRP164      0.0001
     57  CH2       41.8420   12.6470   31.2680 C.ar  164  TRP164      0.0015
     58  N         39.2990    9.1160   38.2000 N.am  165  HIS165     -0.1973
     59  CA        39.3040    9.4580   39.6140 C.3   165  HIS165      0.1656
     60  C         39.9620    8.3840   40.4700 C.2   165  HIS165      0.2291
     61  O         40.4230    8.6650   41.5670 O.2   165  HIS165     -0.2864
     62  CB        37.8700    9.6580   40.0920 C.3   165  HIS165      0.0771
     63  CG        37.1730   10.8070   39.4360 C.ar  165  HIS165      0.0820
     64  ND1       37.3050   12.1050   39.8790 N.ar  165  HIS165     -0.2267
     65  CD2       36.3330   10.8510   38.3750 C.ar  165  HIS165      0.1154
     66  CE1       36.5660   12.8980   39.1250 C.ar  165  HIS165      0.1986
     67  NE2       35.9650   12.1620   38.2070 N.ar  165  HIS165     -0.2212
     68  N         31.4880   15.7730   41.4880 N.3   176  ASP176     -0.1239
     69  CA        32.8360   16.0010   40.9830 C.3   176  ASP176      0.1674
     70  C         33.2430   15.0450   39.8740 C.2   176  ASP176      0.2266
     71  O         34.3420   15.1460   39.3480 O.2   176  ASP176     -0.2867
     72  CB        33.8500   15.9190   42.1330 C.3   176  ASP176      0.1410
     73  CG        35.2480   16.3910   41.7240 C.2   176  ASP176      0.3668
     74  OD1       35.3860   17.5600   41.2920 O.co2 176  ASP176     -0.2456
     75  OD2       36.2120   15.5960   41.8390 O.co2 176  ASP176     -0.2456
     76  N         34.4300   16.5490   34.9110 N.3   179  PHE179     -0.1241
     77  CA        35.1860   17.7920   34.8740 C.3   179  PHE179      0.1605
     78  C         35.5260   18.1110   33.4230 C.2   179  PHE179      0.2264
     79  O         35.4490   17.2370   32.5570 O.2   179  PHE179     -0.2867
     80  CB        36.4530   17.6800   35.7280 C.3   179  PHE179      0.0534
     81  CG        37.3170   16.4980   35.3930 C.ar  179  PHE179     -0.0203
     82  CD1       38.1890   16.5360   34.3070 C.ar  179  PHE179     -0.0042
     83  CD2       37.2700   15.3460   36.1770 C.ar  179  PHE179     -0.0042
     84  CE1       39.0030   15.4470   34.0100 C.ar  179  PHE179     -0.0003
     85  CE2       38.0810   14.2520   35.8860 C.ar  179  PHE179     -0.0003
     86  CZ        38.9480   14.3040   34.8020 C.ar  179  PHE179     -0.0000
     87  N         45.1280   15.2750   25.4730 N.3   185  ASN185     -0.1240
     88  CA        46.1220   14.8020   26.4240 C.3   185  ASN185      0.1653
     89  C         47.3660   14.4240   25.6440 C.2   185  ASN185      0.2266
     90  O         47.2760   13.9920   24.4980 O.2   185  ASN185     -0.2867
     91  CB        45.6080   13.5720   27.1660 C.3   185  ASN185      0.1155
     92  CG        44.3660   13.8610   27.9750 C.2   185  ASN185      0.2627
     93  OD1       44.4100   14.6000   28.9550 O.2   185  ASN185     -0.2716
     94  ND2       43.2450   13.2850   27.5600 N.am  185  ASN185     -0.0877
     95  N         44.2860    5.3220   42.0850 N.3   284  LEU284     -0.1245
     96  CA        44.5130    4.9010   40.7130 C.3   284  LEU284      0.1561
     97  C         45.7410    3.9980   40.7370 C.2   284  LEU284      0.2260
     98  O         46.7780    4.3780   41.2670 O.2   284  LEU284     -0.2867
     99  CB        44.7830    6.1080   39.8170 C.3   284  LEU284      0.0270
    100  CG        44.8090    5.7600   38.3320 C.3   284  LEU284      0.0019
    101  CD1       43.4760    5.1310   37.9420 C.3   284  LEU284      0.0001
    102  CD2       45.0790    7.0160   37.5110 C.3   284  LEU284      0.0001
    103  N         40.9870    0.0420   32.0970 N.3   344  PHE344     -0.1241
    104  CA        41.4830    0.8420   30.9940 C.3   344  PHE344      0.1605
    105  C         42.8760    0.3890   30.5810 C.2   344  PHE344      0.2264
    106  O         43.8010    0.3700   31.3960 O.2   344  PHE344     -0.2867
    107  CB        41.4890    2.3180   31.4100 C.3   344  PHE344      0.0534
    108  CG        42.0740    3.2460   30.3880 C.ar  344  PHE344     -0.0203
    109  CD1       41.6880    3.1750   29.0550 C.ar  344  PHE344     -0.0042
    110  CD2       42.9700    4.2390   30.7720 C.ar  344  PHE344     -0.0042
    111  CE1       42.1800    4.0820   28.1190 C.ar  344  PHE344     -0.0003
    112  CE2       43.4700    5.1550   29.8430 C.ar  344  PHE344     -0.0003
    113  CZ        43.0710    5.0740   28.5150 C.ar  344  PHE344     -0.0000
    114  N         45.0920    0.6370   33.6790 N.3   360  LEU360     -0.1245
    115  CA        44.7390    1.4410   34.8370 C.3   360  LEU360      0.1561
    116  C         43.6370    0.7520   35.6330 C.2   360  LEU360      0.2260
    117  O         42.7360    0.1630   35.0550 O.2   360  LEU360     -0.2867
    118  CB        44.2690    2.8310   34.3930 C.3   360  LEU360      0.0270
    119  CG        45.3450    3.8990   34.1730 C.3   360  LEU360      0.0019
    120  CD1       46.4860    3.3390   33.3390 C.3   360  LEU360      0.0001
    121  CD2       44.7210    5.1060   33.4930 C.3   360  LEU360      0.0001
    122  N         46.0390   10.2770   44.2320 N.3   435  TYR435     -0.1227
    123  CA        45.8710   11.7250   44.2760 C.3   435  TYR435      0.1736
    124  C         44.4890   12.0390   44.8110 C.2   435  TYR435      0.2596
    125  O         43.5890   11.2060   44.7310 O.2   435  TYR435     -0.2718
    126  CB        46.0220   12.3330   42.8820 C.3   435  TYR435      0.0548
    127  CG        45.3120   11.5600   41.7930 C.ar  435  TYR435     -0.0200
    128  CD1       46.0080   10.6360   41.0100 C.ar  435  TYR435     -0.0009
    129  CD2       43.9480   11.7410   41.5460 C.ar  435  TYR435     -0.0009
    130  CE1       45.3710    9.9110   40.0040 C.ar  435  TYR435      0.0417
    131  CE2       43.2980   11.0160   40.5410 C.ar  435  TYR435      0.0417
    132  CZ        44.0200   10.1030   39.7720 C.ar  435  TYR435      0.1957
    133  OH        43.4090    9.3940   38.7620 O.3   435  TYR435     -0.2866
    134  N         44.3280   13.2480   45.3400 N.am  436  SER436     -0.1938
    135  CA        43.0560   13.6930   45.9050 C.3   436  SER436      0.2055
    136  C         41.8640   13.3410   45.0200 C.2   436  SER436      0.2643
    137  O         41.9130   13.5000   43.8000 O.2   436  SER436     -0.2714
    138  CB        43.0890   15.2050   46.1400 C.3   436  SER436      0.2130
    139  OG        43.4700   15.8830   44.9540 O.3   436  SER436     -0.2179
    140  N         40.7980   12.8610   45.6570 N.am  437  ALA437     -0.1963
    141  CA        39.5750   12.4730   44.9700 C.3   437  ALA437      0.1728
    142  C         38.3630   12.7740   45.8600 C.2   437  ALA437      0.2616
    143  O         38.4840   12.8620   47.0870 O.2   437  ALA437     -0.2715
    144  CB        39.6210   10.9880   44.6160 C.3   437  ALA437      0.0334
    145  N         37.1970   12.9230   45.2330 N.am  438  CYS438     -0.1968
    146  CA        35.9670   13.2450   45.9530 C.3   438  CYS438      0.1712
    147  C         34.9890   12.1060   46.2180 C.2   438  CYS438      0.2296
    148  O         34.5560   11.4120   45.2990 O.2   438  CYS438     -0.2864
    149  CB        35.2050   14.3550   45.2200 C.3   438  CYS438      0.0983
    150  SG        36.0140   15.9720   45.2230 S.3   438  CYS438     -0.0798
    151  N         44.2140   20.7270   39.6040 N.3   471  ALA471     -0.1231
    152  CA        44.1080   20.0490   40.8850 C.3   471  ALA471      0.1694
    153  C         44.2490   18.5570   40.6290 C.2   471  ALA471      0.2593
    154  O         43.6780   18.0290   39.6680 O.2   471  ALA471     -0.2718
    155  CB        42.7530   20.3480   41.5330 C.3   471  ALA471      0.0304
    156  N         45.0240   17.8880   41.4800 N.am  472  GLY472     -0.1942
    157  CA        45.2380   16.4640   41.3190 C.3   472  GLY472      0.2014
    158  C         46.1950   16.1090   40.1930 C.2   472  GLY472      0.2639
    159  O         46.5260   14.9350   40.0160 O.2   472  GLY472     -0.2714
    160  N         46.6620   17.1080   39.4430 N.am  473  CYS473     -0.1967
    161  CA        47.5540   16.8500   38.3120 C.3   473  CYS473      0.1712
    162  C         49.0220   17.2550   38.4880 C.2   473  CYS473      0.2296
    163  O         49.3730   18.0720   39.3460 O.2   473  CYS473     -0.2864
    164  CB        47.0020   17.5300   37.0460 C.3   473  CYS473      0.0983
    165  SG        45.3570   16.9540   36.4740 S.3   473  CYS473     -0.0798
@<TRIPOS>BOND
     1    28    27    2
     2    25    26    1
     3    27    26    1
     4    26    29    1
     5    29    30    1
     6    31    30   ar
     7    31    33   ar
     8    90    89    2
     9    30    32   ar
    10    33    35   ar
    11    87    88    1
    12    89    88    1
    13    32    34   ar
    14    88    91    1
    15    35    34   ar
    16    91    92    1
    17    94    92   am
    18     9     7   ar
    19     9    10   ar
    20    92    93    2
    21   111   113   ar
    22   111   109   ar
    23     7     6   ar
    24   113   112   ar
    25    10    12   ar
    26    10     8   ar
    27   109   108   ar
    28    12    14   ar
    29     6     8   ar
    30     6     5    1
    31   112   110   ar
    32     8    11   ar
    33     5     2    1
    34    17    18    2
    35    17    16    1
    36    14    13   ar
    37   108   110   ar
    38   108   107    1
    39   105   104    1
    40   105   106    2
    41     2     3    1
    42     2     1    1
    43    16    15    1
    44    16    19    1
    45    55    57   ar
    46    55    53   ar
    47   104   107    1
    48   104   103    1
    49     3     4    2
    50    57    56   ar
    51    11    13   ar
    52    21    23   ar
    53    21    20   ar
    54    52    53   ar
    55    52    50   ar
    56    53    51   ar
    57    23    24   ar
    58    19    20    1
    59    20    22   ar
    60    79    78    2
    61    56    54   ar
    62    50    49   ar
    63    51    54   ar
    64    51    49   ar
    65    24    22   ar
    66   120   119    1
    67    78    77    1
    68   121   119    1
    69   114   115    1
    70    49    48    1
    71    84    82   ar
    72    84    86   ar
    73   119   118    1
    74    82    81   ar
    75   118   115    1
    76    43    41    1
    77    40    41    1
    78    40    37    1
    79    41    42    1
    80    86    85   ar
    81   115   116    1
    82    77    76    1
    83    77    80    1
    84   117   116    2
    85    48    45    1
    86    81    80    1
    87    81    83   ar
    88    39    38    2
    89    38    37    1
    90    38    44   am
    91    37    36    1
    92    85    83   ar
    93    45    44    1
    94    45    46    1
    95   165   164    1
    96   164   161    1
    97    46    47    2
    98    46    58   am
    99   102   100    1
   100   101   100    1
   101    58    59    1
   102    67    65   ar
   103    67    66   ar
   104   161   162    1
   105   161   160    1
   106   100    99    1
   107    65    63   ar
   108   162   163    2
   109   133   132    1
   110    66    64   ar
   111    71    70    2
   112    63    64   ar
   113    63    62    1
   114   160   158   am
   115   151   152    1
   116    59    62    1
   117    59    60    1
   118   154   153    2
   119   132   130   ar
   120   132   131   ar
   121    99    96    1
   122    70    69    1
   123   130   128   ar
   124   159   158    2
   125   158   157    1
   126    60    61    2
   127   131   129   ar
   128   153   152    1
   129   153   156   am
   130    96    97    1
   131    96    95    1
   132    97    98    2
   133   152   155    1
   134    69    68    1
   135    69    72    1
   136   128   127   ar
   137    74    73   ar
   138   157   156    1
   139   129   127   ar
   140    73    75   ar
   141    73    72    1
   142   127   126    1
   143   126   123    1
   144   137   136    2
   145   122   123    1
   146   123   124    1
   147   144   141    1
   148   125   124    2
   149   124   134   am
   150   139   138    1
   151   141   140    1
   152   141   142    1
   153   136   140   am
   154   136   135    1
   155   149   150    1
   156   149   146    1
   157   145   142   am
   158   145   146    1
   159   148   147    2
   160   134   135    1
   161   142   143    2
   162   135   138    1
   163   146   147    1
