@<TRIPOS>MOLECULE
tmp/3bi5A01.pdb
 134 131 0 0 0
SMALL
GASTEIGER

@<TRIPOS>ATOM
      1  N         10.6950   17.5730   52.5400 N.3    61  TRP61      -0.1241
      2  CA        11.0760   16.9590   53.8030 C.3    61  TRP61       0.1605
      3  C         10.6460   17.7020   55.0430 C.2    61  TRP61       0.2264
      4  O         10.4490   18.9160   55.0330 O.2    61  TRP61      -0.2867
      5  CB        12.5990   16.8460   53.9130 C.3    61  TRP61       0.0550
      6  CG        13.2730   15.9140   52.9510 C.ar   61  TRP61       0.0003
      7  CD1       13.4860   14.5810   53.1190 C.ar   61  TRP61       0.0946
      8  CD2       13.8430   16.2600   51.6840 C.ar   61  TRP61       0.0152
      9  NE1       14.1600   14.0710   52.0380 N.ar   61  TRP61      -0.2442
     10  CE2       14.3920   15.0770   51.1390 C.ar   61  TRP61       0.0810
     11  CE3       13.9470   17.4530   50.9590 C.ar   61  TRP61       0.0012
     12  CZ2       15.0390   15.0460   49.8960 C.ar   61  TRP61       0.0191
     13  CZ3       14.5980   17.4270   49.7110 C.ar   61  TRP61       0.0001
     14  CH2       15.1340   16.2260   49.1970 C.ar   61  TRP61       0.0015
     15  N         12.1460   18.6590   58.4170 N.3    63  HIS63      -0.1241
     16  CA        13.5060   18.7860   58.9610 C.3    63  HIS63       0.1621
     17  C         13.4820   18.8240   60.4950 C.2    63  HIS63       0.2264
     18  O         12.4310   19.0130   61.1140 O.2    63  HIS63      -0.2867
     19  CB        14.1800   20.0700   58.4690 C.3    63  HIS63       0.0745
     20  CG        14.4420   20.0960   56.9970 C.ar   63  HIS63       0.0817
     21  ND1       15.2850   19.1990   56.3760 N.ar   63  HIS63      -0.2268
     22  CD2       13.9830   20.9200   56.0230 C.ar   63  HIS63       0.1154
     23  CE1       15.3340   19.4700   55.0830 C.ar   63  HIS63       0.1986
     24  NE2       14.5540   20.5100   54.8440 N.ar   63  HIS63      -0.2212
     25  N         26.0220    9.4830   51.4060 N.3    93  PHE93      -0.1241
     26  CA        26.1630   10.2150   50.1520 C.3    93  PHE93       0.1605
     27  C         27.2000    9.6280   49.1950 C.2    93  PHE93       0.2264
     28  O         28.2920    9.2040   49.5970 O.2    93  PHE93      -0.2867
     29  CB        26.5480   11.6650   50.4280 C.3    93  PHE93       0.0534
     30  CG        25.4060   12.5370   50.8330 C.ar   93  PHE93      -0.0203
     31  CD1       24.5430   12.1560   51.8560 C.ar   93  PHE93      -0.0042
     32  CD2       25.2160   13.7690   50.2170 C.ar   93  PHE93      -0.0042
     33  CE1       23.5080   12.9900   52.2620 C.ar   93  PHE93      -0.0003
     34  CE2       24.1830   14.6120   50.6160 C.ar   93  PHE93      -0.0003
     35  CZ        23.3270   14.2220   51.6410 C.ar   93  PHE93      -0.0000
     36  N         27.9500   21.0170   48.6760 N.3   166  TYR166     -0.1241
     37  CA        26.6480   20.3660   48.7260 C.3   166  TYR166      0.1605
     38  C         25.7230   21.3210   49.5010 C.2   166  TYR166      0.2264
     39  O         24.4960   21.2910   49.3590 O.2   166  TYR166     -0.2867
     40  CB        26.7290   18.9920   49.4260 C.3   166  TYR166      0.0534
     41  CG        27.0690   19.0150   50.9100 C.ar  166  TYR166     -0.0201
     42  CD1       26.1170   19.3810   51.8670 C.ar  166  TYR166     -0.0009
     43  CD2       28.3600   18.6990   51.3540 C.ar  166  TYR166     -0.0009
     44  CE1       26.4460   19.4410   53.2310 C.ar  166  TYR166      0.0417
     45  CE2       28.7010   18.7560   52.7090 C.ar  166  TYR166      0.0417
     46  CZ        27.7440   19.1320   53.6410 C.ar  166  TYR166      0.1957
     47  OH        28.1030   19.2440   54.9700 O.3   166  TYR166     -0.2866
     48  N         22.7570   23.4750   48.0210 N.3   169  LEU169     -0.1231
     49  CA        21.3960   22.9780   47.8780 C.3   169  LEU169      0.1693
     50  C         20.5320   23.0140   49.1430 C.2   169  LEU169      0.2592
     51  O         19.4390   22.4710   49.1450 O.2   169  LEU169     -0.2718
     52  CB        21.3950   21.5660   47.2720 C.3   169  LEU169      0.0284
     53  CG        21.8610   21.4200   45.8080 C.3   169  LEU169      0.0019
     54  CD1       21.3440   22.5990   44.9830 C.3   169  LEU169      0.0001
     55  CD2       23.3860   21.3550   45.7160 C.3   169  LEU169      0.0001
     56  N         21.0130   23.6360   50.2160 N.am  170  TRP170     -0.1976
     57  CA        20.1990   23.7750   51.4330 C.3   170  TRP170      0.1640
     58  C         19.7260   25.2230   51.4670 C.2   170  TRP170      0.2290
     59  O         18.6480   25.5270   51.9740 O.2   170  TRP170     -0.2864
     60  CB        20.9940   23.4960   52.7240 C.3   170  TRP170      0.0576
     61  CG        21.0990   22.0350   53.1150 C.ar  170  TRP170      0.0006
     62  CD1       22.0190   21.1220   52.6650 C.ar  170  TRP170      0.0946
     63  CD2       20.2270   21.3150   54.0060 C.ar  170  TRP170      0.0152
     64  NE1       21.7690   19.8840   53.2160 N.ar  170  TRP170     -0.2442
     65  CE2       20.6770   19.9730   54.0400 C.ar  170  TRP170      0.0810
     66  CE3       19.1080   21.6730   54.7770 C.ar  170  TRP170      0.0012
     67  CZ2       20.0450   18.9870   54.8140 C.ar  170  TRP170      0.0191
     68  CZ3       18.4800   20.6860   55.5520 C.ar  170  TRP170      0.0001
     69  CH2       18.9540   19.3620   55.5590 C.ar  170  TRP170      0.0015
     70  N         16.1560   27.8220   45.3400 N.3   290  LEU290     -0.1245
     71  CA        16.3190   26.3860   45.2440 C.3   290  LEU290      0.1561
     72  C         15.3180   26.0100   44.1530 C.2   290  LEU290      0.2260
     73  O         14.3330   26.7160   43.9510 O.2   290  LEU290     -0.2867
     74  CB        15.9490   25.7080   46.5610 C.3   290  LEU290      0.0270
     75  CG        16.1960   24.1950   46.6230 C.3   290  LEU290      0.0019
     76  CD1       17.6410   23.9120   46.2450 C.3   290  LEU290      0.0001
     77  CD2       15.8890   23.6570   48.0140 C.3   290  LEU290      0.0001
     78  N         20.8590    9.1000   48.0260 N.3   308  LYS308     -0.1245
     79  CA        21.4150   10.4450   47.9750 C.3   308  LYS308      0.1561
     80  C         22.6840   10.4090   47.1380 C.2   308  LYS308      0.2260
     81  O         23.6290    9.7010   47.4620 O.2   308  LYS308     -0.2867
     82  CB        21.7280   10.9400   49.3890 C.3   308  LYS308      0.0271
     83  CG        20.5230   10.9370   50.3370 C.3   308  LYS308      0.0035
     84  CD        19.6020   12.1210   50.0950 C.3   308  LYS308      0.0206
     85  CE        18.2560   11.9310   50.7840 C.3   308  LYS308      0.1093
     86  NZ        17.4980   10.7740   50.1940 N.3   308  LYS308     -0.1314
     87  N         25.4050   13.0500   44.8760 N.3   310  VAL310     -0.1245
     88  CA        25.7980   14.4070   44.5340 C.3   310  VAL310      0.1561
     89  C         26.9530   14.4280   43.5420 C.2   310  VAL310      0.2260
     90  O         27.9560   13.7310   43.7170 O.2   310  VAL310     -0.2867
     91  CB        26.1920   15.2160   45.7770 C.3   310  VAL310      0.0252
     92  CG1       26.8080   16.5590   45.3530 C.3   310  VAL310      0.0019
     93  CG2       24.9670   15.4510   46.6340 C.3   310  VAL310      0.0019
     94  N         22.4260   17.9220   43.2170 N.3   350  PHE350     -0.1241
     95  CA        22.0210   16.8960   44.1860 C.3   350  PHE350      0.1605
     96  C         20.8530   16.0370   43.7020 C.2   350  PHE350      0.2264
     97  O         19.7370   16.5210   43.5520 O.2   350  PHE350     -0.2867
     98  CB        21.6550   17.5700   45.5100 C.3   350  PHE350      0.0534
     99  CG        21.0200   16.6490   46.5050 C.ar  350  PHE350     -0.0203
    100  CD1       21.6760   15.5060   46.9320 C.ar  350  PHE350     -0.0042
    101  CD2       19.7760   16.9390   47.0380 C.ar  350  PHE350     -0.0042
    102  CE1       21.1050   14.6640   47.8800 C.ar  350  PHE350     -0.0003
    103  CE2       19.1950   16.1030   47.9860 C.ar  350  PHE350     -0.0003
    104  CZ        19.8610   14.9650   48.4100 C.ar  350  PHE350     -0.0000
    105  N         17.9130   18.6320   42.8730 N.3   366  LEU366     -0.1245
    106  CA        17.8380   19.9940   43.3740 C.3   366  LEU366      0.1561
    107  C         18.9430   20.8580   42.7460 C.2   366  LEU366      0.2260
    108  O         20.0750   20.4120   42.5980 O.2   366  LEU366     -0.2867
    109  CB        17.9530   19.9870   44.9120 C.3   366  LEU366      0.0270
    110  CG        16.6480   19.8100   45.7230 C.3   366  LEU366      0.0019
    111  CD1       15.8510   18.6370   45.1980 C.3   366  LEU366      0.0001
    112  CD2       16.9590   19.6030   47.1920 C.3   366  LEU366      0.0001
    113  N         12.7280   30.8710   48.8640 N.3   434  TYR434     -0.1241
    114  CA        12.6170   31.2670   50.2740 C.3   434  TYR434      0.1605
    115  C         13.7600   32.1610   50.7240 C.2   434  TYR434      0.2264
    116  O         14.8020   32.2440   50.0620 O.2   434  TYR434     -0.2867
    117  CB        12.5090   30.0480   51.2140 C.3   434  TYR434      0.0534
    118  CG        13.5820   28.9800   51.0770 C.ar  434  TYR434     -0.0201
    119  CD1       14.8490   29.1450   51.6400 C.ar  434  TYR434     -0.0009
    120  CD2       13.3210   27.7990   50.3800 C.ar  434  TYR434     -0.0009
    121  CE1       15.8350   28.1540   51.5050 C.ar  434  TYR434      0.0417
    122  CE2       14.2940   26.8050   50.2410 C.ar  434  TYR434      0.0417
    123  CZ        15.5460   26.9880   50.8000 C.ar  434  TYR434      0.1957
    124  OH        16.5060   26.0050   50.6300 O.3   434  TYR434     -0.2866
    125  N         12.7820   29.7290   56.9650 N.3   471  GLY471     -0.1210
    126  CA        12.8090   29.1620   55.6290 C.3   471  GLY471      0.1956
    127  C         12.1440   27.8060   55.4990 C.2   471  GLY471      0.2612
    128  O         11.8800   27.3540   54.3840 O.2   471  GLY471     -0.2717
    129  N         11.8520   27.1550   56.6230 N.am  472  CYS472     -0.1970
    130  CA        11.2390   25.8240   56.5890 C.3   472  CYS472      0.1712
    131  C          9.7270   25.8190   56.7560 C.2   472  CYS472      0.2296
    132  O          9.1390   26.7740   57.2580 O.2   472  CYS472     -0.2864
    133  CB        11.8670   24.9220   57.6610 C.3   472  CYS472      0.0983
    134  SG        13.6410   24.6380   57.4390 S.3   472  CYS472     -0.0798
@<TRIPOS>BOND
     1   108   107    2
     2   107   106    1
     3   105   106    1
     4    94    95    1
     5   106   109    1
     6    89    90    2
     7    89    88    1
     8    97    96    2
     9    96    95    1
    10    73    72    2
    11    72    71    1
    12    95    98    1
    13    88    87    1
    14    88    91    1
    15   109   110    1
    16    54    53    1
    17   111   110    1
    18    71    70    1
    19    71    74    1
    20    92    91    1
    21    98    99    1
    22    55    53    1
    23   110   112    1
    24    91    93    1
    25    53    52    1
    26    76    75    1
    27    99   100   ar
    28    99   101   ar
    29    74    75    1
    30    75    77    1
    31   100   102   ar
    32   101   103   ar
    33    80    81    2
    34    80    79    1
    35    52    49    1
    36    49    48    1
    37    49    50    1
    38   102   104   ar
    39    79    78    1
    40    79    82    1
    41   103   104   ar
    42    36    37    1
    43    37    40    1
    44    37    38    1
    45   113   114    1
    46    50    51    2
    47    50    56   am
    48    27    28    2
    49    27    26    1
    50    14    13   ar
    51    14    12   ar
    52    39    38    2
    53    82    83    1
    54    40    41    1
    55    13    11   ar
    56    12    10   ar
    57   116   115    2
    58    84    83    1
    59    84    85    1
    60    26    29    1
    61    26    25    1
    62    86    85    1
    63    56    57    1
    64    32    34   ar
    65    32    30   ar
    66   122   120   ar
    67   122   123   ar
    68   114   115    1
    69   114   117    1
    70   120   118   ar
    71    29    30    1
    72    34    35   ar
    73   124   123    1
    74   123   121   ar
    75    30    31   ar
    76    41    43   ar
    77    41    42   ar
    78    11     8   ar
    79   118   117    1
    80   118   119   ar
    81    10     8   ar
    82    10     9   ar
    83    43    45   ar
    84    57    58    1
    85    57    60    1
    86    58    59    2
    87   121   119   ar
    88    35    33   ar
    89     8     6   ar
    90    31    33   ar
    91    42    44   ar
    92     9     7   ar
    93     1     2    1
    94    62    61   ar
    95    62    64   ar
    96    45    46   ar
    97    60    61    1
    98     6     7   ar
    99     6     5    1
   100    61    63   ar
   101    64    65   ar
   102    44    46   ar
   103    46    47    1
   104     2     5    1
   105     2     3    1
   106    63    65   ar
   107    63    66   ar
   108    65    67   ar
   109   128   127    2
   110    66    68   ar
   111    67    69   ar
   112    24    23   ar
   113    24    22   ar
   114     4     3    2
   115    23    21   ar
   116   127   126    1
   117   127   129   am
   118    68    69   ar
   119   126   125    1
   120    22    20   ar
   121    21    20   ar
   122   130   129    1
   123   130   131    1
   124   130   133    1
   125   131   132    2
   126    20    19    1
   127   134   133    1
   128    15    16    1
   129    19    16    1
   130    16    17    1
   131    17    18    2
