@<TRIPOS>MOLECULE
tmp/3bi6A00.pdb
 169 158 0 0 0
SMALL
GASTEIGER

@<TRIPOS>ATOM
      1  N          2.9870   64.2980   20.4140 N.3    11  GLU11      -0.1245
      2  CA         2.6190   63.2410   19.4340 C.3    11  GLU11       0.1567
      3  C          1.6960   62.2310   20.0900 C.2    11  GLU11       0.2260
      4  O          1.9490   61.8480   21.2710 O.2    11  GLU11      -0.2867
      5  CB         3.8990   62.5270   18.9660 C.3    11  GLU11       0.0388
      6  CG         3.7190   61.4310   17.8530 C.3    11  GLU11       0.1160
      7  CD         4.9970   60.5930   17.6470 C.2    11  GLU11       0.3649
      8  OE1        6.0630   61.0690   18.0960 O.co2  11  GLU11      -0.2457
      9  OE2        4.9440   59.4640   17.0790 O.co2  11  GLU11      -0.2457
     10  N          0.8410   58.5200   20.3940 N.3    13  ILE13      -0.1231
     11  CA         1.6690   57.3100   20.1950 C.3    13  ILE13       0.1692
     12  C          0.8850   56.0430   20.4460 C.2    13  ILE13       0.2592
     13  O          1.3480   54.9400   20.1930 O.2    13  ILE13      -0.2718
     14  CB         2.9600   57.3310   21.0590 C.3    13  ILE13       0.0266
     15  CG1        2.6550   57.3180   22.6190 C.3    13  ILE13       0.0019
     16  CG2        3.8740   58.4750   20.6080 C.3    13  ILE13       0.0020
     17  CD1        4.0090   57.4670   23.4530 C.3    13  ILE13       0.0001
     18  N         -0.3260   56.1760   20.9300 N.am   14  GLY14      -0.1957
     19  CA        -1.1450   55.0120   21.1060 C.3    14  GLY14       0.1869
     20  C         -2.5860   55.3970   21.2730 C.2    14  GLY14       0.2309
     21  O         -2.9300   56.5070   21.7290 O.2    14  GLY14      -0.2863
     22  N         -2.5370   57.5410   24.3600 N.3    21  VAL21      -0.1245
     23  CA        -1.2360   57.7890   24.9170 C.3    21  VAL21       0.1561
     24  C         -0.5470   58.8740   24.1190 C.2    21  VAL21       0.2260
     25  O         -0.5590   58.8490   22.9030 O.2    21  VAL21      -0.2867
     26  CB        -0.4090   56.4700   25.0570 C.3    21  VAL21       0.0252
     27  CG1        0.8540   56.7410   25.8320 C.3    21  VAL21       0.0019
     28  CG2       -1.2590   55.3850   25.7440 C.3    21  VAL21       0.0019
     29  N          5.6370   59.6050   28.6840 N.3    34  ALA34      -0.1245
     30  CA         4.4500   59.0220   28.0520 C.3    34  ALA34       0.1562
     31  C          3.2840   59.2500   28.9980 C.2    34  ALA34       0.2260
     32  O          3.3630   58.8840   30.1980 O.2    34  ALA34      -0.2867
     33  CB         4.6540   57.5220   27.7600 C.3    34  ALA34       0.0290
     34  N         -0.8090   58.5610   29.5720 N.3    36  LYS36      -0.1245
     35  CA        -2.0240   57.9500   29.1230 C.3    36  LYS36       0.1561
     36  C         -3.2030   58.6960   29.7620 C.2    36  LYS36       0.2260
     37  O         -3.2130   58.9560   30.9820 O.2    36  LYS36      -0.2867
     38  CB        -2.0370   56.4820   29.4620 C.3    36  LYS36       0.0271
     39  CG        -3.3280   55.7980   29.1330 C.3    36  LYS36       0.0035
     40  CD        -3.1550   54.3480   29.4900 C.3    36  LYS36       0.0206
     41  CE        -4.2680   53.4790   28.9170 C.3    36  LYS36       0.1093
     42  NZ        -3.9730   52.0060   29.0080 N.3    36  LYS36      -0.1314
     43  N         -3.8090   49.7500   38.9700 N.3    54  GLU54      -0.1245
     44  CA        -2.7070   50.0080   38.0640 C.3    54  GLU54       0.1567
     45  C         -1.7990   51.0800   38.7000 C.2    54  GLU54       0.2260
     46  O         -0.5700   51.0550   38.5870 O.2    54  GLU54      -0.2867
     47  CB        -3.2430   50.4350   36.6750 C.3    54  GLU54       0.0388
     48  CG        -2.1110   50.9010   35.7040 C.3    54  GLU54       0.1160
     49  CD        -2.6210   51.2470   34.2890 C.2    54  GLU54       0.3649
     50  OE1       -3.7840   51.5340   34.1340 O.co2  54  GLU54      -0.2457
     51  OE2       -1.8380   51.2860   33.3410 O.co2  54  GLU54      -0.2457
     52  N          1.9450   50.7600   40.0630 N.3    58  HIS58      -0.1241
     53  CA         3.0180   51.6490   39.5960 C.3    58  HIS58       0.1621
     54  C          3.7630   52.3280   40.7220 C.2    58  HIS58       0.2264
     55  O          4.9710   52.5070   40.6660 O.2    58  HIS58      -0.2867
     56  CB         2.4990   52.7700   38.6390 C.3    58  HIS58       0.0745
     57  CG         2.6830   52.4450   37.1960 C.ar   58  HIS58       0.0817
     58  ND1        3.9130   52.1130   36.6640 N.ar   58  HIS58      -0.2268
     59  CD2        1.7950   52.3290   36.1880 C.ar   58  HIS58       0.1154
     60  CE1        3.7880   51.8650   35.3750 C.ar   58  HIS58       0.1986
     61  NE2        2.5080   51.9550   35.0650 N.ar   58  HIS58      -0.2212
     62  N          8.8440   49.9960   33.5320 N.3    68  VAL68      -0.1245
     63  CA         8.6630   51.4150   33.1870 C.3    68  VAL68       0.1561
     64  C          8.4690   52.2400   34.4910 C.2    68  VAL68       0.2260
     65  O          7.6080   51.8780   35.2850 O.2    68  VAL68      -0.2867
     66  CB         7.4030   51.5200   32.2670 C.3    68  VAL68       0.0252
     67  CG1        6.9460   52.9490   32.1110 C.3    68  VAL68       0.0019
     68  CG2        7.7390   50.9080   30.8740 C.3    68  VAL68       0.0019
     69  N         -2.0720   59.0720   33.8660 N.3    82  ILE82      -0.1245
     70  CA        -0.8680   58.5000   34.3950 C.3    82  ILE82       0.1561
     71  C          0.3320   58.9850   33.5060 C.2    82  ILE82       0.2260
     72  O          0.2860   58.8770   32.2590 O.2    82  ILE82      -0.2867
     73  CB        -1.0030   56.9350   34.5710 C.3    82  ILE82       0.0252
     74  CG1        0.3230   56.3220   35.0150 C.3    82  ILE82       0.0019
     75  CG2       -1.4690   56.2210   33.2880 C.3    82  ILE82       0.0019
     76  CD1        0.0930   55.2520   36.0190 C.3    82  ILE82       0.0001
     77  N          4.2620   58.4650   32.8290 N.3    84  ASN84      -0.1225
     78  CA         5.2580   57.4100   32.9680 C.3    84  ASN84       0.1785
     79  C          6.5120   57.8050   32.1960 C.2    84  ASN84       0.2597
     80  O          6.5090   58.7680   31.3650 O.2    84  ASN84      -0.2718
     81  CB         4.6980   55.9870   32.5250 C.3    84  ASN84       0.1169
     82  CG         3.7350   55.3670   33.5400 C.2    84  ASN84       0.2627
     83  OD1        3.7010   55.7620   34.6940 O.2    84  ASN84      -0.2716
     84  ND2        2.9820   54.3570   33.1290 N.am   84  ASN84      -0.0877
     85  N          7.6070   57.0960   32.4800 N.am   85  GLU85      -0.1965
     86  CA         8.8930   57.1710   31.6800 C.3    85  GLU85       0.1733
     87  C          8.5650   56.9340   30.1630 C.2    85  GLU85       0.2616
     88  O          7.8370   55.9570   29.8230 O.2    85  GLU85      -0.2715
     89  CB         9.8040   56.0280   32.1310 C.3    85  GLU85       0.0429
     90  CG        11.0670   55.7580   31.3500 C.3    85  GLU85       0.1163
     91  CD        11.8300   54.5430   31.9290 C.2    85  GLU85       0.3649
     92  OE1       11.3340   53.7710   32.8080 O.co2  85  GLU85      -0.2457
     93  OE2       12.9920   54.4190   31.5710 O.co2  85  GLU85      -0.2457
     94  N          9.0870   57.8070   29.3090 N.am   86  TYR86      -0.1960
     95  CA         9.0090   57.6360   27.8750 C.3    86  TYR86       0.1771
     96  C         10.0910   56.6430   27.3750 C.2    86  TYR86       0.2620
     97  O         11.2820   56.8600   27.6120 O.2    86  TYR86      -0.2715
     98  CB         9.1860   58.9880   27.1180 C.3    86  TYR86       0.0574
     99  CG         9.0420   58.8220   25.6030 C.ar   86  TYR86      -0.0198
    100  CD1        7.8690   58.3300   25.1120 C.ar   86  TYR86      -0.0009
    101  CD2       10.0970   59.0900   24.7110 C.ar   86  TYR86      -0.0009
    102  CE1        7.6660   58.1350   23.8070 C.ar   86  TYR86       0.0417
    103  CE2        9.9150   58.8590   23.3070 C.ar   86  TYR86       0.0417
    104  CZ         8.6490   58.3980   22.8980 C.ar   86  TYR86       0.1957
    105  OH         8.2600   58.0890   21.5950 O.3    86  TYR86      -0.2866
    106  N          9.6780   55.5940   26.6470 N.am   87  CYS87      -0.1954
    107  CA        10.6300   54.6740   26.0410 C.3    87  CYS87       0.1843
    108  C         10.6260   54.9460   24.5590 C.2    87  CYS87       0.2625
    109  O          9.6510   54.7430   23.8790 O.2    87  CYS87      -0.2714
    110  CB        10.2150   53.2360   26.3190 C.3    87  CYS87       0.0997
    111  SG        10.2220   52.8730   28.1620 S.3    87  CYS87      -0.0797
    112  N         11.7240   55.4610   24.0760 N.am   88  ASN88      -0.1958
    113  CA        11.7540   55.9350   22.6930 C.3    88  ASN88       0.1819
    114  C         11.9050   54.8540   21.5900 C.2    88  ASN88       0.2622
    115  O         11.8250   55.2030   20.3830 O.2    88  ASN88      -0.2715
    116  CB        12.8460   56.9680   22.5160 C.3    88  ASN88       0.1195
    117  CG        14.2110   56.3560   22.6280 C.2    88  ASN88       0.2630
    118  OD1       14.4020   55.1950   23.1010 O.2    88  ASN88      -0.2716
    119  ND2       15.2000   57.1070   22.1730 N.am   88  ASN88      -0.0877
    120  N         12.0590   53.5680   21.9620 N.am   89  GLY89      -0.1940
    121  CA        12.1620   52.4650   20.9520 C.3    89  GLY89       0.2014
    122  C         10.8130   51.8460   20.6990 C.2    89  GLY89       0.2639
    123  O         10.6680   50.9290   19.8590 O.2    89  GLY89      -0.2714
    124  N          9.7800   52.4090   21.2990 N.am   90  GLY90      -0.1939
    125  CA         8.4330   51.9140   21.0770 C.3    90  GLY90       0.2014
    126  C          8.2330   50.5340   21.7200 C.2    90  GLY90       0.2639
    127  O          9.0050   50.1010   22.5790 O.2    90  GLY90      -0.2714
    128  N          7.2190   49.8050   21.2590 N.am   91  SER91      -0.1949
    129  CA         6.9380   48.5270   21.8900 C.3    91  SER91       0.1924
    130  C          7.6890   47.4020   21.2060 C.2    91  SER91       0.2314
    131  O          8.1000   47.5080   20.0210 O.2    91  SER91      -0.2863
    132  CB         5.4550   48.2620   21.8660 C.3    91  SER91       0.2116
    133  OG         5.0020   48.0120   20.5880 O.3    91  SER91      -0.2180
    134  N          5.8660   46.3330   17.8960 N.3    94  ASP94      -0.1239
    135  CA         6.2770   47.0080   16.6650 C.3    94  ASP94       0.1674
    136  C          7.6560   46.6040   16.1360 C.2    94  ASP94       0.2266
    137  O          7.8180   46.5030   14.8870 O.2    94  ASP94      -0.2867
    138  CB         6.2380   48.5610   16.8400 C.3    94  ASP94       0.1410
    139  CG         4.8200   49.1060   17.0030 C.2    94  ASP94       0.3668
    140  OD1        4.6680   50.2640   17.3780 O.co2  94  ASP94      -0.2456
    141  OD2        3.8140   48.4220   16.7540 O.co2  94  ASP94      -0.2456
    142  N          7.9870   45.0380   12.2700 N.3    98  GLU98      -0.1245
    143  CA         9.0620   45.4210   11.3540 C.3    98  GLU98       0.1567
    144  C          9.9420   44.2000   10.9690 C.2    98  GLU98       0.2260
    145  O         10.1380   43.9760    9.7760 O.2    98  GLU98      -0.2867
    146  CB         9.9320   46.5980   11.8500 C.3    98  GLU98       0.0388
    147  CG         9.2480   47.9120   11.9150 C.3    98  GLU98       0.1160
    148  CD        10.0150   48.9840   12.6650 C.2    98  GLU98       0.3649
    149  OE1       11.0770   48.7000   13.2720 O.co2  98  GLU98      -0.2457
    150  OE2        9.5570   50.1000   12.7680 O.co2  98  GLU98      -0.2457
    151  N          8.3790   47.6030   26.4910 N.3   141  PHE141     -0.1241
    152  CA         8.9110   48.8050   25.9020 C.3   141  PHE141      0.1605
    153  C         10.4280   48.8030   25.8240 C.2   141  PHE141      0.2264
    154  O         11.1350   48.2170   26.6600 O.2   141  PHE141     -0.2867
    155  CB         8.3100   50.0780   26.5720 C.3   141  PHE141      0.0534
    156  CG         6.8320   50.1370   26.4270 C.ar  141  PHE141     -0.0203
    157  CD1        6.2690   50.6290   25.2440 C.ar  141  PHE141     -0.0042
    158  CD2        5.9940   49.5980   27.4380 C.ar  141  PHE141     -0.0042
    159  CE1        4.8930   50.6220   25.0660 C.ar  141  PHE141     -0.0003
    160  CE2        4.5910   49.5760   27.2640 C.ar  141  PHE141     -0.0003
    161  CZ         4.0390   50.0930   26.0980 C.ar  141  PHE141     -0.0000
    162  N          2.4120   48.6490   31.1310 N.3   151  ASP151     -0.1239
    163  CA         0.9480   48.3110   31.1890 C.3   151  ASP151      0.1674
    164  C          0.5710   47.4210   32.3570 C.2   151  ASP151      0.2266
    165  O          0.4340   46.1890   32.2520 O.2   151  ASP151     -0.2867
    166  CB         0.4540   47.7240   29.8620 C.3   151  ASP151      0.1410
    167  CG        -1.0660   47.9320   29.6720 C.2   151  ASP151      0.3668
    168  OD1       -1.7710   48.0560   30.6900 O.co2 151  ASP151     -0.2456
    169  OD2       -1.5230   48.0420   28.5270 O.co2 151  ASP151     -0.2456
@<TRIPOS>BOND
     1   145   144    2
     2   144   143    1
     3   143   146    1
     4   143   142    1
     5   146   147    1
     6   147   148    1
     7   148   150   ar
     8   148   149   ar
     9   137   136    2
    10   136   135    1
    11   135   138    1
    12   135   134    1
    13   141   139   ar
    14   138   139    1
    15   139   140   ar
    16     9     7   ar
    17     7     6    1
    18     7     8   ar
    19     6     5    1
    20     5     2    1
    21     2     3    1
    22     2     1    1
    23   123   122    2
    24   131   130    2
    25     3     4    2
    26    13    12    2
    27    11    10    1
    28    11    12    1
    29    11    14    1
    30   115   114    2
    31    12    18   am
    32   133   132    1
    33    16    14    1
    34   122   121    1
    35   122   124   am
    36    18    19    1
    37   121   120    1
    38    14    15    1
    39   125   124    1
    40   125   126    1
    41    19    20    1
    42   130   129    1
    43   128   126   am
    44   128   129    1
    45    20    21    2
    46   114   120   am
    47   114   113    1
    48   105   104    1
    49   126   127    2
    50   132   129    1
    51   119   117   am
    52   116   117    1
    53   116   113    1
    54    15    17    1
    55   117   118    2
    56   113   112    1
    57   104   103   ar
    58   104   102   ar
    59    25    24    2
    60   103   101   ar
    61   102   100   ar
    62   109   108    2
    63   112   108   am
    64    24    23    1
    65    22    23    1
    66   108   107    1
    67   101    99   ar
    68    23    26    1
    69    26    28    1
    70    26    27    1
    71   159   157   ar
    72   159   161   ar
    73   100    99   ar
    74   157   156   ar
    75    99    98    1
    76   153   152    1
    77   153   154    2
    78   152   151    1
    79   152   155    1
    80   107   110    1
    81   107   106    1
    82   161   160   ar
    83   110   111    1
    84   156   155    1
    85   156   158   ar
    86   106    96   am
    87    98    95    1
    88   160   158   ar
    89    96    97    2
    90    96    95    1
    91    33    30    1
    92    95    94    1
    93    30    29    1
    94    30    31    1
    95   169   167   ar
    96    41    42    1
    97    41    40    1
    98    31    32    2
    99    35    38    1
   100    35    34    1
   101    35    36    1
   102    39    38    1
   103    39    40    1
   104    94    87   am
   105   167   166    1
   106   167   168   ar
   107    36    37    2
   108    88    87    2
   109   166   163    1
   110    87    86    1
   111    68    66    1
   112   162   163    1
   113   163   164    1
   114    90    91    1
   115    90    89    1
   116    80    79    2
   117    93    91   ar
   118    86    89    1
   119    86    85    1
   120    91    92   ar
   121    67    66    1
   122    79    85   am
   123    79    78    1
   124   165   164    2
   125    72    71    2
   126    66    63    1
   127    81    78    1
   128    81    82    1
   129    77    78    1
   130    84    82   am
   131    63    62    1
   132    63    64    1
   133    75    73    1
   134    51    49   ar
   135    71    70    1
   136    82    83    2
   137    69    70    1
   138    50    49   ar
   139    49    48    1
   140    70    73    1
   141    64    65    2
   142    73    74    1
   143    74    76    1
   144    61    60   ar
   145    61    59   ar
   146    60    58   ar
   147    48    47    1
   148    59    57   ar
   149    58    57   ar
   150    47    44    1
   151    57    56    1
   152    44    45    1
   153    44    43    1
   154    46    45    2
   155    56    53    1
   156    53    52    1
   157    53    54    1
   158    55    54    2
