@<TRIPOS>MOLECULE
tmp/3bibA00.pdb
 104 102 0 0 0
SMALL
GASTEIGER

@<TRIPOS>ATOM
      1  N         -0.7560  -29.6290   23.9390 N.3    36  ASN36      -0.1225
      2  CA         0.0380  -30.1280   25.0640 C.3    36  ASN36       0.1785
      3  C          1.0990  -31.1440   24.6690 C.2    36  ASN36       0.2598
      4  O          2.2060  -31.1370   25.2140 O.2    36  ASN36      -0.2718
      5  CB        -0.8770  -30.7350   26.1320 C.3    36  ASN36       0.1169
      6  CG        -1.6690  -29.6760   26.8850 C.2    36  ASN36       0.2627
      7  OD1       -2.8820  -29.7930   27.0430 O.2    36  ASN36      -0.2716
      8  ND2       -0.9840  -28.6280   27.3380 N.am   36  ASN36      -0.0877
      9  N          0.7480  -32.0110   23.7210 N.am   37  SER37      -0.1938
     10  CA         1.6170  -33.1010   23.3060 C.3    37  SER37       0.2055
     11  C          1.7690  -33.1220   21.7860 C.2    37  SER37       0.2642
     12  O          0.7870  -32.9860   21.0480 O.2    37  SER37      -0.2714
     13  CB         1.0560  -34.4320   23.8110 C.3    37  SER37       0.2130
     14  OG         1.9510  -35.5010   23.5540 O.3    37  SER37      -0.2179
     15  N          3.0110  -33.2690   21.3330 N.am   38  LYS38      -0.1977
     16  CA         3.3410  -33.3950   19.9100 C.3    38  LYS38       0.1596
     17  C          2.9030  -32.1870   19.0790 C.2    38  LYS38       0.2287
     18  O          2.6770  -31.0930   19.6170 O.2    38  LYS38      -0.2864
     19  CB         2.7730  -34.7110   19.3390 C.3    38  LYS38       0.0298
     20  CG         3.5480  -35.9500   19.8090 C.3    38  LYS38       0.0038
     21  CD         2.6490  -37.1710   19.9510 C.3    38  LYS38       0.0206
     22  CE         3.2960  -38.2760   20.8230 C.3    38  LYS38       0.1093
     23  NZ         4.7250  -38.5730   20.4650 N.3    38  LYS38      -0.1314
     24  N          7.8640  -26.9890   17.4750 N.3    88  ARG88      -0.1245
     25  CA         8.0490  -27.6510   18.7590 C.3    88  ARG88       0.1563
     26  C          9.4050  -28.3260   18.8440 C.2    88  ARG88       0.2260
     27  O          9.6320  -29.3440   18.1840 O.2    88  ARG88      -0.2867
     28  CB         6.9410  -28.6820   19.0140 C.3    88  ARG88       0.0307
     29  CG         7.0100  -29.3410   20.3960 C.3    88  ARG88       0.0489
     30  CD         5.9360  -30.4050   20.6260 C.3    88  ARG88       0.2205
     31  NE         5.8190  -30.7540   22.0490 N.pl3  88  ARG88      -0.0865
     32  CZ         4.7330  -30.5620   22.8000 C.cat  88  ARG88       0.5346
     33  NH1        3.6130  -30.0500   22.2890 N.pl3  88  ARG88       0.1354
     34  NH2        4.7550  -30.9040   24.0780 N.pl3  88  ARG88       0.1354
     35  N         11.6160  -30.6740   20.8180 N.3    90  GLU90      -0.1231
     36  CA        11.4640  -31.7290   21.8150 C.3    90  GLU90       0.1699
     37  C         12.7380  -31.8530   22.6570 C.2    90  GLU90       0.2592
     38  O         13.8410  -32.0040   22.1220 O.2    90  GLU90      -0.2718
     39  CB        11.0650  -33.0530   21.1510 C.3    90  GLU90       0.0402
     40  CG         9.7360  -32.9450   20.3910 C.3    90  GLU90       0.1161
     41  CD         9.2620  -34.2500   19.7580 C.2    90  GLU90       0.3649
     42  OE1       10.0780  -34.9530   19.1250 O.co2  90  GLU90      -0.2457
     43  OE2        8.0510  -34.5580   19.8780 O.co2  90  GLU90      -0.2457
     44  N         12.5660  -31.7570   23.9750 N.am   91  VAL91      -0.1980
     45  CA        13.6680  -31.7270   24.9340 C.3    91  VAL91       0.1595
     46  C         13.5390  -32.9330   25.8800 C.2    91  VAL91       0.2287
     47  O         12.4390  -33.2090   26.3710 O.2    91  VAL91      -0.2864
     48  CB        13.6660  -30.3800   25.7360 C.3    91  VAL91       0.0276
     49  CG1       14.7800  -30.3390   26.7940 C.3    91  VAL91       0.0022
     50  CG2       13.7860  -29.1790   24.7920 C.3    91  VAL91       0.0022
     51  N         13.3080  -35.2720   29.0810 N.3    93  GLY93      -0.1210
     52  CA        12.6780  -34.9680   30.3580 C.3    93  GLY93       0.1956
     53  C         11.2000  -34.6660   30.1830 C.2    93  GLY93       0.2612
     54  O         10.6790  -34.7210   29.0610 O.2    93  GLY93      -0.2717
     55  N         10.5250  -34.3240   31.2820 N.am   94  TRP94      -0.1962
     56  CA         9.0670  -34.1400   31.2610 C.3    94  TRP94       0.1771
     57  C          8.5840  -32.6880   31.3400 C.2    94  TRP94       0.2620
     58  O          9.1180  -31.8800   32.0980 O.2    94  TRP94      -0.2715
     59  CB         8.3890  -35.0060   32.3370 C.3    94  TRP94       0.0590
     60  CG         8.2190  -36.4450   31.9130 C.ar   94  TRP94       0.0006
     61  CD1        8.8800  -37.5370   32.4120 C.ar   94  TRP94       0.0946
     62  CD2        7.3370  -36.9410   30.8880 C.ar   94  TRP94       0.0152
     63  NE1        8.4630  -38.6830   31.7600 N.ar   94  TRP94      -0.2442
     64  CE2        7.5170  -38.3460   30.8240 C.ar   94  TRP94       0.0810
     65  CE3        6.4210  -36.3330   30.0120 C.ar   94  TRP94       0.0012
     66  CZ2        6.8090  -39.1550   29.9220 C.ar   94  TRP94       0.0191
     67  CZ3        5.7120  -37.1380   29.1110 C.ar   94  TRP94       0.0001
     68  CH2        5.9140  -38.5380   29.0750 C.ar   94  TRP94       0.0015
     69  N          7.5720  -32.3900   30.5260 N.am   95  PHE95      -0.1960
     70  CA         6.8800  -31.0990   30.4860 C.3    95  PHE95       0.1771
     71  C          7.7690  -29.8920   30.1600 C.2    95  PHE95       0.2620
     72  O          7.4900  -28.7780   30.6100 O.2    95  PHE95      -0.2715
     73  CB         6.0840  -30.8400   31.7860 C.3    95  PHE95       0.0574
     74  CG         5.3770  -32.0560   32.3360 C.ar   95  PHE95      -0.0200
     75  CD1        4.6440  -32.9080   31.5000 C.ar   95  PHE95      -0.0042
     76  CD2        5.4290  -32.3390   33.6970 C.ar   95  PHE95      -0.0042
     77  CE1        3.9910  -34.0380   32.0130 C.ar   95  PHE95      -0.0003
     78  CE2        4.7740  -33.4640   34.2200 C.ar   95  PHE95      -0.0003
     79  CZ         4.0520  -34.3120   33.3740 C.ar   95  PHE95      -0.0000
     80  N          8.8040  -30.0980   29.3500 N.am   96  ASN96      -0.1958
     81  CA         9.7770  -29.0400   29.0830 C.3    96  ASN96       0.1819
     82  C         10.0770  -28.7180   27.5990 C.2    96  ASN96       0.2621
     83  O         11.0430  -28.0070   27.3090 O.2    96  ASN96      -0.2715
     84  CB        11.0820  -29.3650   29.8180 C.3    96  ASN96       0.1195
     85  CG        11.6780  -30.6880   29.3850 C.2    96  ASN96       0.2630
     86  OD1       11.0360  -31.4630   28.6680 O.2    96  ASN96      -0.2716
     87  ND2       12.9100  -30.9560   29.8070 N.am   96  ASN96      -0.0877
     88  N          9.2790  -29.2450   26.6690 N.am   97  ASP97      -0.1971
     89  CA         9.4580  -28.9520   25.2430 C.3    97  ASP97       0.1709
     90  C          9.3020  -27.4510   24.9870 C.2    97  ASP97       0.2293
     91  O          8.4000  -26.8170   25.5450 O.2    97  ASP97      -0.2864
     92  CB         8.4370  -29.7180   24.3820 C.3    97  ASP97       0.1436
     93  CG         8.8060  -31.1860   24.1650 C.2    97  ASP97       0.3671
     94  OD1        9.7290  -31.7130   24.8360 O.co2  97  ASP97      -0.2456
     95  OD2        8.1470  -31.8250   23.3100 O.co2  97  ASP97      -0.2456
     96  N          7.8450  -24.7890   23.0210 N.3    99  LYS99      -0.1245
     97  CA         6.7300  -24.6400   22.0960 C.3    99  LYS99       0.1561
     98  C          6.6550  -23.1930   21.6680 C.2    99  LYS99       0.2260
     99  O          6.8130  -22.2980   22.4890 O.2    99  LYS99      -0.2867
    100  CB         5.4150  -25.0570   22.7620 C.3    99  LYS99       0.0271
    101  CG         5.4910  -26.3720   23.5440 C.3    99  LYS99       0.0035
    102  CD         4.1170  -26.8920   23.9270 C.3    99  LYS99       0.0206
    103  CE         3.6180  -26.2770   25.2230 C.3    99  LYS99       0.1093
    104  NZ         2.1770  -26.6040   25.4660 N.3    99  LYS99      -0.1314
@<TRIPOS>BOND
     1    24    25    1
     2    27    26    2
     3    25    26    1
     4    25    28    1
     5    28    29    1
     6    17    18    2
     7    17    16    1
     8    42    41   ar
     9    19    20    1
    10    19    16    1
    11    41    43   ar
    12    41    40    1
    13    20    21    1
    14    16    15    1
    15    21    22    1
    16    40    39    1
    17    29    30    1
    18    23    22    1
    19    30    31    1
    20    35    36    1
    21    12    11    2
    22    39    36    1
    23    15    11   am
    24    98    97    1
    25    98    99    2
    26    11    10    1
    27    36    37    1
    28    31    32    2
    29    97   100    1
    30    97    96    1
    31    38    37    2
    32    33    32    1
    33    37    44   am
    34   100   101    1
    35    32    34    1
    36    10     9    1
    37    10    13    1
    38    95    93   ar
    39   101   102    1
    40    14    13    1
    41     9     3   am
    42   102   103    1
    43     1     2    1
    44    44    45    1
    45    93    92    1
    46    93    94   ar
    47    92    89    1
    48     3     2    1
    49     3     4    2
    50    50    48    1
    51    45    48    1
    52    45    46    1
    53    90    89    1
    54    90    91    2
    55     2     5    1
    56   103   104    1
    57    89    88    1
    58    48    49    1
    59    46    47    2
    60     5     6    1
    61    88    82   am
    62     6     7    2
    63     6     8   am
    64    83    82    2
    65    82    81    1
    66    86    85    2
    67    54    53    2
    68    68    67   ar
    69    68    66   ar
    70    51    52    1
    71    81    80    1
    72    81    84    1
    73    67    65   ar
    74    80    71   am
    75    85    87   am
    76    85    84    1
    77    66    64   ar
    78    65    62   ar
    79    71    70    1
    80    71    72    2
    81    53    52    1
    82    53    55   am
    83    70    69    1
    84    70    73    1
    85    69    57   am
    86    64    62   ar
    87    64    63   ar
    88    62    60   ar
    89    56    55    1
    90    56    57    1
    91    56    59    1
    92    57    58    2
    93    75    77   ar
    94    75    74   ar
    95    63    61   ar
    96    73    74    1
    97    60    59    1
    98    60    61   ar
    99    77    79   ar
   100    74    76   ar
   101    79    78   ar
   102    76    78   ar
