@<TRIPOS>MOLECULE
tmp/3bifA00.pdb
 143 135 0 0 0
SMALL
GASTEIGER

@<TRIPOS>ATOM
      1  N        -30.9270  -91.2140   55.7190 N.3    55  PHE55      -0.1241
      2  CA       -29.8030  -91.0660   56.6430 C.3    55  PHE55       0.1605
      3  C        -29.0430  -92.3430   56.9890 C.2    55  PHE55       0.2264
      4  O        -28.1260  -92.3050   57.8210 O.2    55  PHE55      -0.2867
      5  CB       -30.2770  -90.3770   57.9360 C.3    55  PHE55       0.0534
      6  CG       -30.9490  -89.0430   57.7030 C.ar   55  PHE55      -0.0203
      7  CD1      -30.1910  -87.8750   57.5580 C.ar   55  PHE55      -0.0042
      8  CD2      -32.3340  -88.9480   57.6240 C.ar   55  PHE55      -0.0042
      9  CE1      -30.8050  -86.6340   57.3420 C.ar   55  PHE55      -0.0003
     10  CE2      -32.9640  -87.7110   57.4050 C.ar   55  PHE55      -0.0003
     11  CZ       -32.1940  -86.5530   57.2650 C.ar   55  PHE55      -0.0000
     12  N        -26.3500  -95.2960   56.8180 N.3    57  PRO57      -0.2116
     13  CA       -24.9330  -95.3870   56.4340 C.3    57  PRO57       0.1372
     14  C        -24.6430  -96.1800   55.1570 C.2    57  PRO57       0.2244
     15  O        -23.5600  -96.0610   54.5780 O.2    57  PRO57      -0.2868
     16  CB       -24.2920  -96.0420   57.6480 C.3    57  PRO57       0.0268
     17  CG       -25.3960  -96.8960   58.1870 C.3    57  PRO57       0.0207
     18  CD       -26.5840  -95.9720   58.1080 C.3    57  PRO57       0.0892
     19  N        -26.0730  -90.6860   51.2260 N.3    63  LEU63      -0.1245
     20  CA       -24.7140  -90.5900   51.7260 C.3    63  LEU63       0.1561
     21  C        -23.9680  -89.5380   50.9220 C.2    63  LEU63       0.2260
     22  O        -23.2180  -88.7430   51.4860 O.2    63  LEU63      -0.2867
     23  CB       -24.0050  -91.9430   51.5850 C.3    63  LEU63       0.0270
     24  CG       -23.1730  -92.5030   52.7420 C.3    63  LEU63       0.0019
     25  CD1      -23.9750  -92.4920   54.0290 C.3    63  LEU63       0.0001
     26  CD2      -22.7420  -93.9230   52.3890 C.3    63  LEU63       0.0001
     27  N        -25.5010  -85.8510   51.8030 N.3    66  ARG66      -0.1231
     28  CA       -25.0810  -85.3590   53.1040 C.3    66  ARG66       0.1694
     29  C        -23.5950  -85.0140   53.0510 C.2    66  ARG66       0.2591
     30  O        -23.1560  -84.0580   53.6830 O.2    66  ARG66      -0.2718
     31  CB       -25.3740  -86.4030   54.1870 C.3    66  ARG66       0.0321
     32  CG       -26.8560  -86.6690   54.3410 C.3    66  ARG66       0.0489
     33  CD       -27.2260  -87.3550   55.6460 C.3    66  ARG66       0.2205
     34  NE       -27.1900  -88.8220   55.6120 N.pl3  66  ARG66      -0.0865
     35  CZ       -26.1030  -89.5490   55.8390 C.cat  66  ARG66       0.5346
     36  NH1      -24.9600  -88.9560   56.0980 N.pl3  66  ARG66       0.1354
     37  NH2      -26.1680  -90.8700   55.8800 N.pl3  66  ARG66       0.1354
     38  N        -22.8400  -85.7530   52.2430 N.am   67  LYS67      -0.1980
     39  CA       -21.4030  -85.5270   52.0960 C.3    67  LYS67       0.1596
     40  C        -21.0680  -84.2960   51.2780 C.2    67  LYS67       0.2287
     41  O        -20.0360  -83.6710   51.5090 O.2    67  LYS67      -0.2864
     42  CB       -20.7160  -86.7470   51.4890 C.3    67  LYS67       0.0298
     43  CG       -20.6240  -87.9060   52.4470 C.3    67  LYS67       0.0038
     44  CD       -19.9030  -89.1060   51.8820 C.3    67  LYS67       0.0206
     45  CE       -20.1260  -90.2870   52.8350 C.3    67  LYS67       0.1093
     46  NZ       -19.2750  -91.4570   52.5250 N.3    67  LYS67      -0.1314
     47  N        -22.1440  -81.2220   53.4940 N.3    70  ALA70      -0.1231
     48  CA       -21.1170  -80.9920   54.4910 C.3    70  ALA70       0.1694
     49  C        -19.9120  -80.3030   53.8650 C.2    70  ALA70       0.2591
     50  O        -19.3130  -79.4280   54.4780 O.2    70  ALA70      -0.2718
     51  CB       -20.7000  -82.2920   55.1310 C.3    70  ALA70       0.0304
     52  N        -19.5380  -80.6840   52.6510 N.am   71  LEU71      -0.1980
     53  CA       -18.3960  -80.0310   52.0160 C.3    71  LEU71       0.1596
     54  C        -18.7480  -78.6190   51.5780 C.2    71  LEU71       0.2287
     55  O        -17.8820  -77.7620   51.5120 O.2    71  LEU71      -0.2864
     56  CB       -17.8870  -80.8040   50.8030 C.3    71  LEU71       0.0297
     57  CG       -17.2230  -82.1710   50.9730 C.3    71  LEU71       0.0022
     58  CD1      -16.5600  -82.5680   49.6490 C.3    71  LEU71       0.0001
     59  CD2      -16.1930  -82.1280   52.0970 C.3    71  LEU71       0.0001
     60  N        -18.4880  -76.4150   54.6530 N.3    74  LEU74      -0.1245
     61  CA       -17.0890  -76.1690   54.9810 C.3    74  LEU74       0.1561
     62  C        -16.4240  -75.2120   54.0030 C.2    74  LEU74       0.2260
     63  O        -15.4610  -74.5380   54.3590 O.2    74  LEU74      -0.2867
     64  CB       -16.2970  -77.4760   55.0310 C.3    74  LEU74       0.0270
     65  CG       -16.5570  -78.3970   56.2180 C.3    74  LEU74       0.0019
     66  CD1      -15.6720  -79.6130   56.0550 C.3    74  LEU74       0.0001
     67  CD2      -16.2770  -77.6850   57.5480 C.3    74  LEU74       0.0001
     68  N        -19.4470  -74.6800   63.0110 N.3    91  PHE91      -0.1241
     69  CA       -19.8540  -75.7980   62.1600 C.3    91  PHE91       0.1605
     70  C        -20.8440  -76.6840   62.8830 C.2    91  PHE91       0.2264
     71  O        -20.4580  -77.5400   63.6820 O.2    91  PHE91      -0.2867
     72  CB       -18.6390  -76.6240   61.7430 C.3    91  PHE91       0.0534
     73  CG       -18.9320  -77.6070   60.6530 C.ar   91  PHE91      -0.0203
     74  CD1      -19.2840  -77.1580   59.3780 C.ar   91  PHE91      -0.0042
     75  CD2      -18.8740  -78.9760   60.8930 C.ar   91  PHE91      -0.0042
     76  CE1      -19.5750  -78.0610   58.3570 C.ar   91  PHE91      -0.0003
     77  CE2      -19.1630  -79.8890   59.8810 C.ar   91  PHE91      -0.0003
     78  CZ       -19.5150  -79.4280   58.6070 C.ar   91  PHE91      -0.0000
     79  N        -20.3480  -87.0400   64.8470 N.3    96  THR96      -0.1203
     80  CA       -20.2560  -88.0900   65.8370 C.3    96  THR96       0.1994
     81  C        -19.1600  -89.1470   65.7900 C.2    96  THR96       0.2618
     82  O        -19.0980  -89.9720   66.6900 O.2    96  THR96      -0.2717
     83  CB       -21.6140  -88.7610   65.9930 C.3    96  THR96       0.1784
     84  OG1      -22.1640  -89.0170   64.7010 O.3    96  THR96      -0.2211
     85  CG2      -22.5440  -87.8510   66.7170 C.3    96  THR96       0.0376
     86  N        -18.3000  -89.1390   64.7750 N.am   97  THR97      -0.1952
     87  CA       -17.2300  -90.1380   64.7000 C.3    97  THR97       0.1897
     88  C        -15.8630  -89.4770   64.7090 C.2    97  THR97       0.2313
     89  O        -15.7310  -88.3270   64.2920 O.2    97  THR97      -0.2863
     90  CB       -17.3320  -91.0240   63.4210 C.3    97  THR97       0.1794
     91  OG1      -17.0230  -90.2470   62.2540 O.3    97  THR97      -0.2208
     92  CG2      -18.7300  -91.6030   63.2840 C.3    97  THR97       0.0378
     93  N        -14.5390  -88.4120   61.1290 N.3   100  ARG100     -0.1245
     94  CA       -15.1340  -87.1420   60.7180 C.3   100  ARG100      0.1563
     95  C        -14.4680  -85.9690   61.4390 C.2   100  ARG100      0.2260
     96  O        -13.9600  -85.0440   60.8050 O.2   100  ARG100     -0.2867
     97  CB       -16.6510  -87.1480   60.9750 C.3   100  ARG100      0.0307
     98  CG       -17.3490  -85.8620   60.5720 C.3   100  ARG100      0.0489
     99  CD       -18.6390  -86.1200   59.8070 C.3   100  ARG100      0.2205
    100  NE       -19.8560  -85.8040   60.5570 N.pl3 100  ARG100     -0.0865
    101  CZ       -20.8890  -85.1170   60.0680 C.cat 100  ARG100      0.5346
    102  NH1      -20.8650  -84.6520   58.8310 N.pl3 100  ARG100      0.1354
    103  NH2      -21.9660  -84.9170   60.8120 N.pl3 100  ARG100      0.1354
    104  N        -11.1490  -85.0850   60.1580 N.3   103  MET103     -0.1230
    105  CA       -11.1480  -84.4770   58.8280 C.3   103  MET103      0.1702
    106  C        -11.3440  -82.9880   58.9730 C.2   103  MET103      0.2592
    107  O        -10.6160  -82.1990   58.3790 O.2   103  MET103     -0.2718
    108  CB       -12.2860  -85.0160   57.9660 C.3   103  MET103      0.0401
    109  CG       -12.0530  -86.3860   57.4050 C.3   103  MET103      0.0596
    110  SD       -13.3610  -86.7520   56.2480 S.3   103  MET103     -0.1393
    111  CE       -14.2910  -87.9860   57.2030 C.3   103  MET103      0.0692
    112  N        -12.3800  -82.6260   59.7240 N.am  104  ILE104     -0.1980
    113  CA       -12.7220  -81.2340   59.9990 C.3   104  ILE104      0.1595
    114  C        -11.5340  -80.5320   60.6420 C.2   104  ILE104      0.2287
    115  O        -11.1960  -79.4130   60.2790 O.2   104  ILE104     -0.2864
    116  CB       -13.9380  -81.1530   60.9320 C.3   104  ILE104      0.0276
    117  CG1      -15.1280  -81.8430   60.2640 C.3   104  ILE104      0.0022
    118  CG2      -14.2660  -79.6970   61.2520 C.3   104  ILE104      0.0022
    119  CD1      -16.2560  -82.1650   61.2050 C.3   104  ILE104      0.0001
    120  N        -29.4750  -93.8380   63.5350 N.3   160  CYS160     -0.1221
    121  CA       -28.4970  -93.8070   62.4450 C.3   160  CYS160      0.1808
    122  C        -27.1970  -93.1730   62.8700 C.2   160  CYS160      0.2601
    123  O        -26.1670  -93.4170   62.2690 O.2   160  CYS160     -0.2717
    124  CB       -29.0350  -93.0630   61.2330 C.3   160  CYS160      0.0970
    125  SG       -30.3490  -93.8990   60.3700 S.3   160  CYS160     -0.0800
    126  N        -27.2500  -92.3500   63.9100 N.am  161  TYR161     -0.1976
    127  CA       -26.0460  -91.6890   64.4120 C.3   161  TYR161      0.1639
    128  C        -25.4850  -92.3680   65.6480 C.2   161  TYR161      0.2290
    129  O        -24.2800  -92.4460   65.8050 O.2   161  TYR161     -0.2864
    130  CB       -26.2990  -90.1930   64.6540 C.3   161  TYR161      0.0560
    131  CG       -26.5200  -89.4300   63.3600 C.ar  161  TYR161     -0.0198
    132  CD1      -25.4310  -89.0350   62.5680 C.ar  161  TYR161     -0.0009
    133  CD2      -27.8170  -89.1480   62.8960 C.ar  161  TYR161     -0.0009
    134  CE1      -25.6240  -88.3900   61.3370 C.ar  161  TYR161      0.0417
    135  CE2      -28.0230  -88.4980   61.6580 C.ar  161  TYR161      0.0417
    136  CZ       -26.9210  -88.1270   60.8950 C.ar  161  TYR161      0.1957
    137  OH       -27.1060  -87.5340   59.6730 O.3   161  TYR161     -0.2866
    138  N        -22.4520  -95.5870   65.5600 N.3   164  SER164     -0.1217
    139  CA       -21.0400  -95.3530   65.3140 C.3   164  SER164      0.1889
    140  C        -20.5700  -94.1470   66.1280 C.2   164  SER164      0.2288
    141  O        -19.4300  -93.7030   66.0050 O.2   164  SER164     -0.2866
    142  CB       -20.7800  -95.1630   63.8150 C.3   164  SER164      0.2089
    143  OG       -21.6960  -94.2470   63.2570 O.3   164  SER164     -0.2183
@<TRIPOS>BOND
     1    58    57    1
     2    56    57    1
     3    56    53    1
     4    21    22    2
     5    21    20    1
     6    57    59    1
     7    19    20    1
     8    40    41    2
     9    40    39    1
    10    42    39    1
    11    42    43    1
    12    55    54    2
    13    54    53    1
    14    23    20    1
    15    23    24    1
    16    27    28    1
    17    44    43    1
    18    44    45    1
    19    53    52    1
    20    39    38    1
    21    38    29   am
    22    26    24    1
    23    46    45    1
    24    52    49   am
    25    24    25    1
    26    29    28    1
    27    29    30    2
    28    28    31    1
    29    47    48    1
    30    49    50    2
    31    49    48    1
    32    62    63    2
    33    62    61    1
    34    31    32    1
    35    32    33    1
    36    48    51    1
    37    15    14    2
    38    60    61    1
    39    61    64    1
    40    64    65    1
    41    14    13    1
    42    34    33    1
    43    34    35    2
    44     1     2    1
    45    35    37    1
    46    35    36    1
    47    66    65    1
    48    65    67    1
    49   110   111    1
    50   110   109    1
    51    13    12    1
    52    13    16    1
    53     2     3    1
    54     2     5    1
    55    12    18    1
    56     3     4    2
    57    11     9   ar
    58    11    10   ar
    59     9     7   ar
    60    10     8   ar
    61   109   108    1
    62     7     6   ar
    63     8     6   ar
    64    16    17    1
    65     6     5    1
    66   108   105    1
    67    18    17    1
    68    76    78   ar
    69    76    74   ar
    70   107   106    2
    71    78    77   ar
    72   105   106    1
    73   105   104    1
    74   102   101    1
    75   106   112   am
    76    74    73   ar
    77   137   136    1
    78   112   113    1
    79    99   100    1
    80    99    98    1
    81    77    75   ar
    82   113   114    1
    83   113   116    1
    84   101   100    2
    85   101   103    1
    86   117   116    1
    87   117   119    1
    88   115   114    2
    89   125   124    1
    90    98    97    1
    91    73    75   ar
    92    73    72    1
    93    94    97    1
    94    94    93    1
    95    94    95    1
    96    96    95    2
    97   136   134   ar
    98   136   135   ar
    99   116   118    1
   100   124   121    1
   101   134   132   ar
   102   135   133   ar
   103    72    69    1
   104    69    70    1
   105    69    68    1
   106    91    90    1
   107   123   122    2
   108   121   122    1
   109   121   120    1
   110   132   131   ar
   111   122   126   am
   112    70    71    2
   113   133   131   ar
   114   143   142    1
   115    92    90    1
   116   131   130    1
   117    90    87    1
   118   142   139    1
   119   126   127    1
   120    89    88    2
   121   127   130    1
   122   127   128    1
   123    87    88    1
   124    87    86    1
   125    84    83    1
   126    86    81   am
   127    79    80    1
   128   139   138    1
   129   139   140    1
   130   128   129    2
   131    81    80    1
   132    81    82    2
   133    80    83    1
   134    83    85    1
   135   141   140    2
