@<TRIPOS>MOLECULE
tmp/3bioB00.pdb
 135 129 0 0 0
SMALL
GASTEIGER

@<TRIPOS>ATOM
      1  N        -29.9370   47.9000  158.7740 N.3    13  ILE13      -0.1245
      2  CA       -29.4240   46.8700  157.8830 C.3    13  ILE13       0.1561
      3  C        -30.5640   46.3220  157.0170 C.2    13  ILE13       0.2260
      4  O        -30.3990   46.1360  155.8030 O.2    13  ILE13      -0.2867
      5  CB       -28.6980   45.7760  158.6770 C.3    13  ILE13       0.0252
      6  CG1      -27.3630   46.3430  159.1900 C.3    13  ILE13       0.0019
      7  CG2      -28.4360   44.5590  157.8230 C.3    13  ILE13       0.0019
      8  CD1      -26.5120   45.3540  159.9950 C.3    13  ILE13       0.0001
      9  N        -25.9530   38.5390  159.4120 N.3    82  SER82      -0.1217
     10  CA       -24.7050   39.3130  159.5340 C.3    82  SER82       0.1889
     11  C        -24.2280   39.4030  160.9840 C.2    82  SER82       0.2288
     12  O        -23.5890   40.3800  161.3600 O.2    82  SER82      -0.2866
     13  CB       -24.8540   40.7270  158.9470 C.3    82  SER82       0.2089
     14  OG       -25.8740   41.4730  159.5820 O.3    82  SER82      -0.2183
     15  N        -22.2830   39.7890  164.0860 N.3    84  ASP84      -0.1239
     16  CA       -20.9720   40.4510  164.0370 C.3    84  ASP84       0.1674
     17  C        -20.0470   40.2640  165.2410 C.2    84  ASP84       0.2266
     18  O        -19.0280   40.9340  165.3440 O.2    84  ASP84      -0.2867
     19  CB       -21.1160   41.9290  163.6540 C.3    84  ASP84       0.1410
     20  CG       -21.7570   42.7640  164.7090 C.2    84  ASP84       0.3668
     21  OD1      -22.1450   42.2250  165.7710 O.co2  84  ASP84      -0.2456
     22  OD2      -21.8530   43.9980  164.4690 O.co2  84  ASP84      -0.2456
     23  N        -17.3330   38.4040  166.6430 N.3    86  HIS86      -0.1241
     24  CA       -16.3470   37.4580  166.1020 C.3    86  HIS86       0.1621
     25  C        -16.1600   36.2220  166.9620 C.2    86  HIS86       0.2264
     26  O        -16.1170   35.1170  166.4480 O.2    86  HIS86      -0.2867
     27  CB       -15.0010   38.1480  165.9320 C.3    86  HIS86       0.0745
     28  CG       -14.9810   39.1510  164.8310 C.ar   86  HIS86       0.0817
     29  ND1      -14.6980   38.8100  163.5280 N.ar   86  HIS86      -0.2268
     30  CD2      -15.1840   40.4890  164.8380 C.ar   86  HIS86       0.1154
     31  CE1      -14.7280   39.8950  162.7760 C.ar   86  HIS86       0.1986
     32  NE2      -15.0250   40.9260  163.5430 N.ar   86  HIS86      -0.2212
     33  N        -21.7230   39.8550  156.9330 N.3   112  GLY112     -0.1210
     34  CA       -21.6720   41.2870  156.6040 C.3   112  GLY112      0.1956
     35  C        -20.3520   41.5020  155.8940 C.2   112  GLY112      0.2612
     36  O        -19.9150   40.6380  155.1330 O.2   112  GLY112     -0.2717
     37  N        -19.7000   42.6300  156.1390 N.am  113  TRP113     -0.1962
     38  CA       -18.3530   42.8200  155.6090 C.3   113  TRP113      0.1771
     39  C        -17.2690   42.5090  156.6310 C.2   113  TRP113      0.2620
     40  O        -16.1690   42.0990  156.2530 O.2   113  TRP113     -0.2715
     41  CB       -18.1420   44.1750  154.9340 C.3   113  TRP113      0.0590
     42  CG       -18.4670   45.4210  155.7160 C.ar  113  TRP113      0.0006
     43  CD1      -19.6920   45.9940  155.8730 C.ar  113  TRP113      0.0946
     44  CD2      -17.5340   46.2810  156.3800 C.ar  113  TRP113      0.0152
     45  NE1      -19.5920   47.1440  156.6050 N.ar  113  TRP113     -0.2442
     46  CE2      -18.2720   47.3590  156.9130 C.ar  113  TRP113      0.0810
     47  CE3      -16.1450   46.2590  156.5540 C.ar  113  TRP113      0.0012
     48  CZ2      -17.6740   48.3700  157.6520 C.ar  113  TRP113      0.0191
     49  CZ3      -15.5500   47.2930  157.2490 C.ar  113  TRP113      0.0001
     50  CH2      -16.3030   48.3350  157.7750 C.ar  113  TRP113      0.0015
     51  N        -17.5430   42.6630  157.9230 N.am  114  ASP114     -0.1958
     52  CA       -16.5620   42.1330  158.8840 C.3   114  ASP114      0.1825
     53  C        -17.2370   41.8730  160.2290 C.2   114  ASP114      0.2464
     54  O        -17.6140   42.8140  160.9020 O.2   114  ASP114     -0.2730
     55  CB       -15.3340   43.0570  159.0120 C.3   114  ASP114      0.1450
     56  CG       -14.0550   42.2940  159.3580 C.2   114  ASP114      0.3671
     57  OD1      -14.1750   41.3000  160.1190 O.co2 114  ASP114     -0.2456
     58  OD2      -12.9520   42.6380  158.8460 O.co2 114  ASP114     -0.2456
     59  N        -17.4910   40.5940  160.5650 N.am  115  PRO115     -0.2727
     60  CA       -17.1640   39.4110  159.8030 C.3   115  PRO115      0.1402
     61  C        -17.9670   39.3250  158.5180 C.2   115  PRO115      0.2269
     62  O        -19.0320   39.9750  158.3780 O.2   115  PRO115     -0.2865
     63  CB       -17.5520   38.2720  160.7400 C.3   115  PRO115      0.0296
     64  CG       -18.6010   38.8520  161.5920 C.3   115  PRO115      0.0237
     65  CD       -18.2190   40.2590  161.7960 C.3   115  PRO115      0.0939
     66  N         -9.6570   49.3050  160.7870 N.3   137  PHE137     -0.1241
     67  CA       -10.9800   49.8380  160.5340 C.3   137  PHE137      0.1605
     68  C        -11.0730   51.3540  160.5270 C.2   137  PHE137      0.2264
     69  O        -10.4270   52.0400  161.3240 O.2   137  PHE137     -0.2867
     70  CB       -11.9540   49.2930  161.5800 C.3   137  PHE137      0.0534
     71  CG       -12.1930   47.8370  161.4500 C.ar  137  PHE137     -0.0203
     72  CD1      -12.8590   47.3190  160.3270 C.ar  137  PHE137     -0.0042
     73  CD2      -11.7260   46.9660  162.4020 C.ar  137  PHE137     -0.0042
     74  CE1      -13.0860   45.9580  160.2150 C.ar  137  PHE137     -0.0003
     75  CE2      -11.9170   45.6130  162.2740 C.ar  137  PHE137     -0.0003
     76  CZ       -12.6220   45.1090  161.1910 C.ar  137  PHE137     -0.0000
     77  N        -18.5890   53.4550  164.8790 N.3   141  SER141     -0.1217
     78  CA       -18.7240   52.1830  165.5640 C.3   141  SER141      0.1889
     79  C        -20.0650   52.1080  166.2490 C.2   141  SER141      0.2288
     80  O        -20.3580   52.8990  167.1650 O.2   141  SER141     -0.2866
     81  CB       -17.6370   52.0210  166.6430 C.3   141  SER141      0.2089
     82  OG       -17.8640   50.8420  167.4200 O.3   141  SER141     -0.2183
     83  N        -19.4510   50.7780  170.0010 N.3   143  HIS143     -0.1241
     84  CA       -18.8340   51.7540  170.8800 C.3   143  HIS143      0.1621
     85  C        -19.7440   52.9530  171.1360 C.2   143  HIS143      0.2264
     86  O        -19.7600   53.5100  172.2350 O.2   143  HIS143     -0.2867
     87  CB       -17.4680   52.2020  170.3390 C.3   143  HIS143      0.0745
     88  CG       -16.3780   51.2180  170.6100 C.ar  143  HIS143      0.0817
     89  ND1      -16.2760   50.0220  169.9320 N.ar  143  HIS143     -0.2268
     90  CD2      -15.3790   51.2230  171.5190 C.ar  143  HIS143      0.1154
     91  CE1      -15.2430   49.3450  170.3980 C.ar  143  HIS143      0.1986
     92  NE2      -14.6760   50.0560  171.3580 N.ar  143  HIS143     -0.2212
     93  N        -14.2700   55.2890  164.9070 N.3   159  THR159     -0.1218
     94  CA       -13.1290   54.4210  164.9440 C.3   159  THR159      0.1862
     95  C        -12.1350   54.9080  163.8990 C.2   159  THR159      0.2287
     96  O        -12.4560   54.9770  162.7180 O.2   159  THR159     -0.2866
     97  CB       -13.5510   52.9880  164.6280 C.3   159  THR159      0.1770
     98  OG1      -14.3800   52.4930  165.6970 O.3   159  THR159     -0.2211
     99  CG2      -12.3220   52.0620  164.4570 C.3   159  THR159      0.0375
    100  N        -10.0210   56.2560  169.1530 N.3   169  ARG169     -0.1245
    101  CA       -11.4540   56.4970  169.2330 C.3   169  ARG169      0.1563
    102  C        -11.7090   57.9710  169.4570 C.2   169  ARG169      0.2260
    103  O        -11.2210   58.5560  170.4390 O.2   169  ARG169     -0.2867
    104  CB       -12.0830   55.6700  170.3580 C.3   169  ARG169      0.0307
    105  CG       -11.5500   54.2460  170.3720 C.3   169  ARG169      0.0489
    106  CD       -12.6250   53.2090  170.4540 C.3   169  ARG169      0.2205
    107  NE       -12.0710   51.8650  170.3150 N.pl3 169  ARG169     -0.0865
    108  CZ       -12.2180   51.0660  169.2630 C.cat 169  ARG169      0.5346
    109  NH1      -12.9460   51.4120  168.2110 N.pl3 169  ARG169      0.1354
    110  NH2      -11.6480   49.8750  169.2720 N.pl3 169  ARG169      0.1354
    111  N        -17.4610   54.2210  155.8150 N.3   213  HIS213     -0.1241
    112  CA       -16.5770   53.4330  156.6810 C.3   213  HIS213      0.1621
    113  C        -15.5760   52.7650  155.7900 C.2   213  HIS213      0.2264
    114  O        -15.5970   52.8800  154.5270 O.2   213  HIS213     -0.2867
    115  CB       -17.3880   52.3790  157.4560 C.3   213  HIS213      0.0745
    116  CG       -16.8940   52.0860  158.8440 C.ar  213  HIS213      0.0817
    117  ND1      -15.5570   51.9190  159.1580 N.ar  213  HIS213     -0.2268
    118  CD2      -17.5760   51.8870  159.9980 C.ar  213  HIS213      0.1154
    119  CE1      -15.4360   51.6560  160.4460 C.ar  213  HIS213      0.1986
    120  NE2      -16.6470   51.6230  160.9810 N.ar  213  HIS213     -0.2212
    121  N        -21.2720   51.5230  155.0120 N.3   236  ASN236     -0.1240
    122  CA       -21.2700   50.3540  155.8780 C.3   236  ASN236      0.1653
    123  C        -22.5340   49.4780  155.7760 C.2   236  ASN236      0.2266
    124  O        -22.4590   48.3280  155.3110 O.2   236  ASN236     -0.2867
    125  CB       -21.0130   50.8640  157.3020 C.3   236  ASN236      0.1155
    126  CG       -21.2530   49.8400  158.3840 C.2   236  ASN236      0.2627
    127  OD1      -21.3360   48.6420  158.1470 O.2   236  ASN236     -0.2716
    128  ND2      -21.3210   50.3380  159.6180 N.am  236  ASN236     -0.0877
    129  N        -23.2640   45.7020  153.9540 N.3   240  THR240     -0.1218
    130  CA       -23.8220   44.5880  154.7200 C.3   240  THR240      0.1862
    131  C        -25.1080   44.0640  154.0500 C.2   240  THR240      0.2287
    132  O        -25.3050   42.8560  153.8820 O.2   240  THR240     -0.2866
    133  CB       -24.0810   45.0030  156.1500 C.3   240  THR240      0.1770
    134  OG1      -22.8320   45.3880  156.7470 O.3   240  THR240     -0.2211
    135  CG2      -24.7190   43.8340  156.9500 C.3   240  THR240      0.0375
@<TRIPOS>BOND
     1   132   131    2
     2   129   130    1
     3   131   130    1
     4   114   113    2
     5   130   133    1
     6    41    38    1
     7    41    42    1
     8   121   122    1
     9    36    35    2
    10   124   123    2
    11    38    37    1
    12    38    39    1
    13    42    43   ar
    14    42    44   ar
    15   123   122    1
    16   113   112    1
    17     4     3    2
    18   111   112    1
    19    43    45   ar
    20   122   125    1
    21    35    37   am
    22    35    34    1
    23   133   134    1
    24   133   135    1
    25    40    39    2
    26    44    47   ar
    27    44    46   ar
    28    47    49   ar
    29    34    33    1
    30    45    46   ar
    31    39    51   am
    32   112   115    1
    33    46    48   ar
    34     3     2    1
    35    49    50   ar
    36   125   126    1
    37   115   116    1
    38    48    50   ar
    39     7     5    1
    40     2     5    1
    41     2     1    1
    42    51    52    1
    43   127   126    2
    44    62    61    2
    45   126   128   am
    46    61    60    1
    47     5     6    1
    48   116   117   ar
    49   116   118   ar
    50    58    56   ar
    51    52    55    1
    52    52    53    1
    53    13    10    1
    54    13    14    1
    55    55    56    1
    56   117   119   ar
    57     6     8    1
    58    56    57   ar
    59     9    10    1
    60    10    11    1
    61    60    59    1
    62    60    63    1
    63   118   120   ar
    64    74    72   ar
    65    74    76   ar
    66    53    59   am
    67    53    54    2
    68    72    71   ar
    69   119   120   ar
    70    68    67    1
    71    68    69    2
    72    67    66    1
    73    67    70    1
    74    59    65    1
    75    63    64    1
    76    11    12    2
    77    76    75   ar
    78    71    70    1
    79    71    73   ar
    80    64    65    1
    81    75    73   ar
    82    96    95    2
    83    31    29   ar
    84    31    32   ar
    85    29    28   ar
    86    32    30   ar
    87    19    16    1
    88    19    20    1
    89    95    94    1
    90    16    15    1
    91    16    17    1
    92    99    97    1
    93    22    20   ar
    94    97    94    1
    95    97    98    1
    96    20    21   ar
    97    28    30   ar
    98    28    27    1
    99    77    78    1
   100    93    94    1
   101    17    18    2
   102    78    79    1
   103    78    81    1
   104    27    24    1
   105    24    23    1
   106    24    25    1
   107    79    80    2
   108    26    25    2
   109    81    82    1
   110   109   108    1
   111   100   101    1
   112   101   102    1
   113   101   104    1
   114   108   110    1
   115   108   107    2
   116   102   103    2
   117    89    91   ar
   118    89    88   ar
   119    83    84    1
   120   107   106    1
   121    87    88    1
   122    87    84    1
   123   104   105    1
   124   105   106    1
   125    91    92   ar
   126    88    90   ar
   127    84    85    1
   128    85    86    2
   129    92    90   ar
