@<TRIPOS>MOLECULE
tmp/3biuB02.pdb
 215 216 0 0 0
SMALL
GASTEIGER

@<TRIPOS>ATOM
      1  N         22.6290   -5.9510   18.3340 N.3    43  HIS43      -0.1241
      2  CA        22.4180   -7.2770   17.7570 C.3    43  HIS43       0.1621
      3  C         21.7010   -7.2110   16.4130 C.2    43  HIS43       0.2264
      4  O         21.7250   -8.2050   15.6770 O.2    43  HIS43      -0.2867
      5  CB        21.6520   -8.2040   18.7050 C.3    43  HIS43       0.0745
      6  CG        20.1630   -8.1370   18.7360 C.ar   43  HIS43       0.0817
      7  ND1       19.5120   -7.4730   19.7630 N.ar   43  HIS43      -0.2268
      8  CD2       19.1680   -8.6220   17.9540 C.ar   43  HIS43       0.1154
      9  CE1       18.2050   -7.5460   19.5980 C.ar   43  HIS43       0.1986
     10  NE2       17.9690   -8.2390   18.5010 N.ar   43  HIS43      -0.2212
     11  N         25.8610   -9.9830   15.2970 N.3    47  TYR47      -0.1241
     12  CA        25.6220  -11.1130   16.1800 C.3    47  TYR47       0.1605
     13  C         26.3360  -12.3660   15.6720 C.2    47  TYR47       0.2264
     14  O         25.7160  -13.2510   15.0800 O.2    47  TYR47      -0.2867
     15  CB        24.1310  -11.4320   16.3470 C.3    47  TYR47       0.0534
     16  CG        23.9170  -12.3450   17.5390 C.ar   47  TYR47      -0.0201
     17  CD1       24.3510  -11.9470   18.7940 C.ar   47  TYR47      -0.0009
     18  CD2       23.3030  -13.5810   17.4120 C.ar   47  TYR47      -0.0009
     19  CE1       24.1710  -12.7580   19.8990 C.ar   47  TYR47       0.0417
     20  CE2       23.1200  -14.3940   18.5100 C.ar   47  TYR47       0.0417
     21  CZ        23.5530  -13.9840   19.7520 C.ar   47  TYR47       0.1957
     22  OH        23.3760  -14.8020   20.8510 O.3    47  TYR47      -0.2866
     23  N         25.2070  -16.0030   15.1670 N.3    50  TRP50      -0.1241
     24  CA        24.2940  -16.3470   14.0810 C.3    50  TRP50       0.1605
     25  C         24.8840  -16.0230   12.7180 C.2    50  TRP50       0.2264
     26  O         24.2420  -16.2500   11.6940 O.2    50  TRP50      -0.2867
     27  CB        22.9640  -15.6030   14.2510 C.3    50  TRP50       0.0550
     28  CG        22.2000  -16.1290   15.4300 C.ar   50  TRP50       0.0003
     29  CD1       22.5720  -17.1620   16.2370 C.ar   50  TRP50       0.0946
     30  CD2       20.9470  -15.6640   15.9330 C.ar   50  TRP50       0.0152
     31  NE1       21.6290  -17.3700   17.2150 N.ar   50  TRP50      -0.2442
     32  CE2       20.6210  -16.4600   17.0480 C.ar   50  TRP50       0.0810
     33  CE3       20.0690  -14.6530   15.5490 C.ar   50  TRP50       0.0012
     34  CZ2       19.4570  -16.2810   17.7890 C.ar   50  TRP50       0.0191
     35  CZ3       18.9180  -14.4820   16.2900 C.ar   50  TRP50       0.0001
     36  CH2       18.6120  -15.2800   17.3940 C.ar   50  TRP50       0.0015
     37  N         25.6520  -12.9200   11.9430 N.3    52  LYS52      -0.1245
     38  CA        25.1030  -11.6140   11.6030 C.3    52  LYS52       0.1561
     39  C         26.1510  -10.5060   11.7320 C.2    52  LYS52       0.2260
     40  O         26.6870  -10.2600   12.8100 O.2    52  LYS52      -0.2867
     41  CB        23.8950  -11.2740   12.4840 C.3    52  LYS52       0.0271
     42  CG        23.0940  -10.0830   11.9700 C.3    52  LYS52       0.0035
     43  CD        21.9850   -9.6680   12.9240 C.3    52  LYS52       0.0206
     44  CE        20.7730  -10.5720   12.8210 C.3    52  LYS52       0.1093
     45  NZ        19.8250  -10.4000   13.9570 N.3    52  LYS52      -0.1314
     46  N         27.9710   -9.1700   23.0190 N.3    92  TRP92      -0.1241
     47  CA        27.2720  -10.2350   22.3320 C.3    92  TRP92       0.1605
     48  C         27.7630  -11.6090   22.7790 C.2    92  TRP92       0.2264
     49  O         27.1410  -12.6390   22.4970 O.2    92  TRP92      -0.2867
     50  CB        27.4370  -10.0810   20.8170 C.3    92  TRP92       0.0550
     51  CG        28.8590  -10.0720   20.3530 C.ar   92  TRP92       0.0003
     52  CD1       29.6380   -8.9640   20.1480 C.ar   92  TRP92       0.0946
     53  CD2       29.6740  -11.2110   20.0420 C.ar   92  TRP92       0.0152
     54  NE1       30.8860   -9.3520   19.7240 N.ar   92  TRP92      -0.2442
     55  CE2       30.9360  -10.7230   19.6510 C.ar   92  TRP92       0.0810
     56  CE3       29.4710  -12.5900   20.0500 C.ar   92  TRP92       0.0012
     57  CZ2       31.9860  -11.5640   19.2740 C.ar   92  TRP92       0.0191
     58  CZ3       30.5110  -13.4220   19.6750 C.ar   92  TRP92       0.0001
     59  CH2       31.7610  -12.9150   19.2870 C.ar   92  TRP92       0.0015
     60  N         28.2530  -12.8050   26.0150 N.3    94  GLU94      -0.1231
     61  CA        27.5260  -13.3320   27.1630 C.3    94  GLU94       0.1699
     62  C         26.0600  -12.9330   27.1750 C.2    94  GLU94       0.2592
     63  O         25.1990  -13.7830   26.9210 O.2    94  GLU94      -0.2718
     64  CB        28.2140  -12.8580   28.4530 C.3    94  GLU94       0.0402
     65  CG        27.3160  -12.9270   29.6730 C.3    94  GLU94       0.1161
     66  CD        27.9720  -12.3410   30.9080 C.2    94  GLU94       0.3649
     67  OE1       28.6670  -11.3100   30.7820 O.co2  94  GLU94      -0.2457
     68  OE2       27.7810  -12.9250   31.9970 O.co2  94  GLU94      -0.2457
     69  N         25.7200  -11.6770   27.4670 N.am   95  ASN95      -0.1960
     70  CA        24.3260  -11.3750   27.7930 C.3    95  ASN95       0.1819
     71  C         23.6990  -10.2360   27.0130 C.2    95  ASN95       0.2621
     72  O         22.6250   -9.7590   27.4070 O.2    95  ASN95      -0.2715
     73  CB        24.2680  -11.0520   29.2990 C.3    95  ASN95       0.1195
     74  CG        25.2060   -9.9410   29.7160 C.2    95  ASN95       0.2630
     75  OD1       25.8320   -9.2540   28.8970 O.2    95  ASN95      -0.2716
     76  ND2       25.3260   -9.7440   31.0300 N.am   95  ASN95      -0.0877
     77  N         24.3170   -9.7720   25.9450 N.am   96  LEU96      -0.1977
     78  CA        23.8810   -8.5990   25.1920 C.3    96  LEU96       0.1596
     79  C         23.8550   -7.3480   26.0640 C.2    96  LEU96       0.2287
     80  O         23.0410   -6.4380   25.8760 O.2    96  LEU96      -0.2864
     81  CB        22.5060   -8.8050   24.5440 C.3    96  LEU96       0.0297
     82  CG        22.4220   -9.9940   23.5790 C.3    96  LEU96       0.0022
     83  CD1       20.9790  -10.3960   23.3100 C.3    96  LEU96       0.0001
     84  CD2       23.1380   -9.6700   22.2770 C.3    96  LEU96       0.0001
     85  N         20.1150  -15.9350   33.0410 N.3   172  ILE172     -0.1245
     86  CA        21.0250  -14.9620   32.4460 C.3   172  ILE172      0.1561
     87  C         21.4420  -13.8780   33.4320 C.2   172  ILE172      0.2260
     88  O         20.6670  -13.4990   34.3120 O.2   172  ILE172     -0.2867
     89  CB        20.3720  -14.3190   31.2070 C.3   172  ILE172      0.0252
     90  CG1       20.1360  -15.3200   30.0700 C.3   172  ILE172      0.0019
     91  CG2       21.1700  -13.1320   30.6980 C.3   172  ILE172      0.0019
     92  CD1       21.4240  -15.9580   29.5720 C.3   172  ILE172      0.0001
     93  N          3.9300   -8.9700   24.8800 N.3   192  ASP192     -0.1225
     94  CA         5.3900   -8.9210   24.8550 C.3   192  ASP192      0.1805
     95  C          5.8860   -8.4910   23.4800 C.2   192  ASP192      0.2598
     96  O          5.1120   -8.4500   22.5200 O.2   192  ASP192     -0.2718
     97  CB         5.9870  -10.2780   25.2200 C.3   192  ASP192      0.1424
     98  CG         7.4650  -10.2630   25.5420 C.2   192  ASP192      0.3668
     99  OD1        8.1300   -9.2030   25.5000 O.co2 192  ASP192     -0.2456
    100  OD2        7.9690  -11.3730   25.8440 O.co2 192  ASP192     -0.2456
    101  N          7.1820   -8.1830   23.3790 N.am  193  ALA193     -0.1966
    102  CA         7.7450   -8.0440   22.0360 C.3   193  ALA193      0.1728
    103  C          8.1890   -9.4390   21.6010 C.2   193  ALA193      0.2616
    104  O          8.1760  -10.3290   22.4610 O.2   193  ALA193     -0.2715
    105  CB         8.8900   -7.0680   21.9910 C.3   193  ALA193      0.0334
    106  N          8.5650   -9.6080   20.3450 N.am  194  CYS194     -0.1954
    107  CA         9.0090  -10.9100   19.8470 C.3   194  CYS194      0.1843
    108  C          9.9820  -10.7370   18.6910 C.2   194  CYS194      0.2625
    109  O         10.2670   -9.5940   18.3180 O.2   194  CYS194     -0.2714
    110  CB         7.8030  -11.7460   19.4220 C.3   194  CYS194      0.0997
    111  SG         8.0600  -13.5300   19.3600 S.3   194  CYS194     -0.0797
    112  N         10.4780  -11.8440   18.1380 N.am  195  GLU195     -0.1977
    113  CA        11.3730  -11.7490   16.9900 C.3   195  GLU195      0.1602
    114  C         10.7990  -10.8630   15.8870 C.2   195  GLU195      0.2287
    115  O          9.6250  -10.9660   15.5310 O.2   195  GLU195     -0.2864
    116  CB        11.6660  -13.1380   16.3980 C.3   195  GLU195      0.0415
    117  CG        12.2630  -13.0470   15.0000 C.3   195  GLU195      0.1163
    118  CD        12.8900  -14.3230   14.4840 C.2   195  GLU195      0.3649
    119  OE1       12.1480  -15.3130   14.2960 O.co2 195  GLU195     -0.2457
    120  OE2       14.1210  -14.3380   14.2530 O.co2 195  GLU195     -0.2457
    121  N         12.9140   -6.5470   17.5990 N.3   198  SER198     -0.1217
    122  CA        14.2870   -6.2160   17.9460 C.3   198  SER198      0.1889
    123  C         14.6560   -4.8060   17.4970 C.2   198  SER198      0.2288
    124  O         14.3000   -4.3920   16.3940 O.2   198  SER198     -0.2866
    125  CB        15.2790   -7.1960   17.3170 C.3   198  SER198      0.2089
    126  OG        15.2410   -8.4930   17.8820 O.3   198  SER198     -0.2183
    127  N         14.0420   -2.6870   22.3570 N.3   218  VAL218     -0.1231
    128  CA        13.7940   -4.1240   22.3990 C.3   218  VAL218      0.1692
    129  C         15.1040   -4.8820   22.2320 C.2   218  VAL218      0.2593
    130  O         15.7830   -4.7160   21.2120 O.2   218  VAL218     -0.2718
    131  CB        12.8170   -4.5640   21.2950 C.3   218  VAL218      0.0266
    132  CG1       12.4690   -6.0410   21.4610 C.3   218  VAL218      0.0020
    133  CG2       11.5690   -3.6960   21.3030 C.3   218  VAL218      0.0020
    134  N         15.4770   -5.7030   23.2150 N.am  219  SER219     -0.1938
    135  CA        16.7470   -6.4240   23.0410 C.3   219  SER219      0.2055
    136  C         16.6020   -7.9350   23.1190 C.2   219  SER219      0.2643
    137  O         17.1320   -8.6610   22.2770 O.2   219  SER219     -0.2714
    138  CB        17.7250   -5.9020   24.0960 C.3   219  SER219      0.2130
    139  OG        18.9400   -6.6240   24.1650 O.3   219  SER219     -0.2179
    140  N         15.9170   -8.5250   24.1040 N.am  220  TRP220     -0.1959
    141  CA        15.9110   -9.9860   24.1810 C.3   220  TRP220      0.1771
    142  C         14.8420  -10.4670   25.1620 C.2   220  TRP220      0.2620
    143  O         14.2180   -9.6420   25.8260 O.2   220  TRP220     -0.2715
    144  CB        17.2640  -10.5660   24.5810 C.3   220  TRP220      0.0590
    145  CG        17.7600  -10.3060   25.9680 C.ar  220  TRP220      0.0006
    146  CD1       18.4100   -9.1760   26.3800 C.ar  220  TRP220      0.0946
    147  CD2       17.6810  -11.1410   27.1320 C.ar  220  TRP220      0.0152
    148  NE1       18.7350   -9.2450   27.7080 N.ar  220  TRP220     -0.2442
    149  CE2       18.2940  -10.4530   28.1940 C.ar  220  TRP220      0.0810
    150  CE3       17.1510  -12.4070   27.3910 C.ar  220  TRP220      0.0012
    151  CZ2       18.3900  -10.9830   29.4810 C.ar  220  TRP220      0.0191
    152  CZ3       17.2420  -12.9410   28.6650 C.ar  220  TRP220      0.0001
    153  CH2       17.8610  -12.2240   29.6950 C.ar  220  TRP220      0.0015
    154  N         14.6870  -11.7810   25.1950 N.am  221  GLY221     -0.1940
    155  CA        13.7580  -12.4790   26.0640 C.3   221  GLY221      0.2014
    156  C         13.7530  -13.9810   25.8050 C.2   221  GLY221      0.2639
    157  O         14.2780  -14.4780   24.8110 O.2   221  GLY221     -0.2714
    158  N         13.1500  -14.7280   26.7160 N.am  222  GLU222     -0.1963
    159  CA        13.0480  -16.1770   26.6380 C.3   222  GLU222      0.1733
    160  C         11.6620  -16.5480   26.1300 C.2   222  GLU222      0.2617
    161  O         10.6610  -16.4880   26.8400 O.2   222  GLU222     -0.2715
    162  CB        13.3580  -16.7750   28.0120 C.3   222  GLU222      0.0429
    163  CG        14.7360  -16.3680   28.5140 C.3   222  GLU222      0.1163
    164  CD        14.8360  -16.1210   30.0020 C.2   222  GLU222      0.3649
    165  OE1       14.3910  -15.0590   30.4890 O.co2 222  GLU222     -0.2457
    166  OE2       15.3800  -17.0000   30.7040 O.co2 222  GLU222     -0.2457
    167  N         11.6180  -16.9180   24.8540 N.am  223  GLY223     -0.1940
    168  CA        10.3460  -17.0780   24.1690 C.3   223  GLY223      0.2014
    169  C          9.6710  -15.7230   24.0110 C.2   223  GLY223      0.2639
    170  O         10.3070  -14.6700   24.0970 O.2   223  GLY223     -0.2714
    171  N          8.3660  -15.7430   23.7800 N.am  224  CYS224     -0.1967
    172  CA         7.5880  -14.5140   23.6900 C.3   224  CYS224      0.1712
    173  C          6.2730  -14.7340   24.4430 C.2   224  CYS224      0.2296
    174  O          5.6640  -15.7890   24.2540 O.2   224  CYS224     -0.2864
    175  CB         7.3230  -14.1130   22.2470 C.3   224  CYS224      0.0983
    176  SG         8.7820  -14.0280   21.1850 S.3   224  CYS224     -0.0798
    177  N          9.9510  -12.1890   31.1470 N.3   230  TYR230     -0.1227
    178  CA         9.7560  -10.7710   30.8330 C.3   230  TYR230      0.1736
    179  C         10.6020  -10.3220   29.6570 C.2   230  TYR230      0.2596
    180  O         11.6120  -10.9240   29.2820 O.2   230  TYR230     -0.2718
    181  CB        10.0510   -9.9300   32.0890 C.3   230  TYR230      0.0548
    182  CG         9.1090  -10.3380   33.2080 C.ar  230  TYR230     -0.0200
    183  CD1        7.8480   -9.7700   33.3080 C.ar  230  TYR230     -0.0009
    184  CD2        9.5000  -11.3020   34.1320 C.ar  230  TYR230     -0.0009
    185  CE1        6.9960  -10.1510   34.3270 C.ar  230  TYR230      0.0417
    186  CE2        8.6560  -11.6890   35.1480 C.ar  230  TYR230      0.0417
    187  CZ         7.4080  -11.1050   35.2320 C.ar  230  TYR230      0.1957
    188  OH         6.5570  -11.4850   36.2410 O.3   230  TYR230     -0.2866
    189  N         10.2090   -9.2220   29.0100 N.am  231  GLY231     -0.1942
    190  CA        11.0390   -8.7550   27.8900 C.3   231  GLY231      0.2014
    191  C         12.1670   -7.9220   28.4800 C.2   231  GLY231      0.2639
    192  O         11.8910   -7.2060   29.4510 O.2   231  GLY231     -0.2714
    193  N         13.3730   -8.0240   27.9300 N.am  232  PHE232     -0.1959
    194  CA        14.4720   -7.2020   28.4340 C.3   232  PHE232      0.1771
    195  C         14.7860   -6.1170   27.4110 C.2   232  PHE232      0.2619
    196  O         14.8030   -6.3400   26.2030 O.2   232  PHE232     -0.2715
    197  CB        15.7070   -8.0460   28.7700 C.3   232  PHE232      0.0574
    198  CG        15.5300   -8.7760   30.0930 C.ar  232  PHE232     -0.0200
    199  CD1       14.7540   -9.9210   30.1660 C.ar  232  PHE232     -0.0042
    200  CD2       16.1310   -8.3130   31.2510 C.ar  232  PHE232     -0.0042
    201  CE1       14.5710  -10.6010   31.3590 C.ar  232  PHE232     -0.0003
    202  CE2       15.9570   -8.9760   32.4500 C.ar  232  PHE232     -0.0003
    203  CZ        15.1680  -10.1130   32.5070 C.ar  232  PHE232     -0.0000
    204  N         15.0220   -4.9220   27.9340 N.am  233  TYR233     -0.1974
    205  CA        15.2380   -3.7380   27.1280 C.3   233  TYR233      0.1639
    206  C         16.5460   -3.0480   27.4920 C.2   233  TYR233      0.2290
    207  O         16.9360   -2.9960   28.6560 O.2   233  TYR233     -0.2864
    208  CB        14.0800   -2.7350   27.2960 C.3   233  TYR233      0.0560
    209  CG        12.7580   -3.3790   26.9260 C.ar  233  TYR233     -0.0198
    210  CD1       12.0650   -4.1730   27.8310 C.ar  233  TYR233     -0.0009
    211  CD2       12.2150   -3.1860   25.6620 C.ar  233  TYR233     -0.0009
    212  CE1       10.8600   -4.7510   27.4780 C.ar  233  TYR233      0.0417
    213  CE2       11.0120   -3.7690   25.3120 C.ar  233  TYR233      0.0417
    214  CZ        10.3370   -4.5540   26.2210 C.ar  233  TYR233      0.1957
    215  OH         9.1350   -5.1290   25.8590 O.3   233  TYR233     -0.2866
@<TRIPOS>BOND
     1    38    39    1
     2    38    37    1
     3    38    41    1
     4    26    25    2
     5    39    40    2
     6    42    41    1
     7    42    43    1
     8    25    24    1
     9    44    43    1
    10    44    45    1
    11    24    27    1
    12    24    23    1
    13    27    28    1
    14   120   118   ar
    15   119   118   ar
    16   118   117    1
    17   117   116    1
    18    14    13    2
    19    11    12    1
    20    28    30   ar
    21    28    29   ar
    22   115   114    2
    23    33    30   ar
    24    33    35   ar
    25    13    12    1
    26     4     3    2
    27   114   113    1
    28    30    32   ar
    29    12    15    1
    30    29    31   ar
    31    35    36   ar
    32    15    16    1
    33   124   123    2
    34   116   113    1
    35     3     2    1
    36   113   112    1
    37    32    31   ar
    38    32    34   ar
    39   125   126    1
    40   125   122    1
    41    36    34   ar
    42    18    16   ar
    43    18    20   ar
    44   123   122    1
    45    16    17   ar
    46   121   122    1
    47     2     1    1
    48     2     5    1
    49     8    10   ar
    50     8     6   ar
    51   112   108   am
    52   109   108    2
    53    10     9   ar
    54    20    21   ar
    55   108   107    1
    56     5     6    1
    57     6     7   ar
    58    17    19   ar
    59    57    59   ar
    60    57    55   ar
    61    59    58   ar
    62   111   110    1
    63   111   176    1
    64   110   107    1
    65     9     7   ar
    66    55    54   ar
    67    55    53   ar
    68    58    56   ar
    69    54    52   ar
    70    21    19   ar
    71    21    22    1
    72   107   106    1
    73    53    56   ar
    74    53    51   ar
    75    52    51   ar
    76   106   103   am
    77    51    50    1
    78    50    47    1
    79   176   175    1
    80   130   129    2
    81   131   133    1
    82   131   132    1
    83   131   128    1
    84   103   102    1
    85   103   104    2
    86   105   102    1
    87   102   101    1
    88   129   128    1
    89   129   134   am
    90   175   172    1
    91   137   136    2
    92    84    82    1
    93    47    48    1
    94    47    46    1
    95   127   128    1
    96    49    48    2
    97    96    95    2
    98   135   136    1
    99   135   134    1
   100   135   138    1
   101   136   140   am
   102    83    82    1
   103   101    95   am
   104    95    94    1
   105    82    81    1
   106   172   171    1
   107   172   173    1
   108   171   169   am
   109   169   170    2
   110   169   168    1
   111   138   139    1
   112   140   141    1
   113   168   167    1
   114   141   144    1
   115   141   142    1
   116   174   173    2
   117    81    78    1
   118   144   145    1
   119   157   156    2
   120   167   160   am
   121    94    93    1
   122    94    97    1
   123   142   154   am
   124   142   143    2
   125    78    77    1
   126    78    79    1
   127   154   155    1
   128    97    98    1
   129   213   211   ar
   130   213   214   ar
   131    99    98   ar
   132    98   100   ar
   133   211   209   ar
   134   156   155    1
   135   156   158   am
   136   215   214    1
   137    80    79    2
   138    77    71   am
   139   145   146   ar
   140   145   147   ar
   141    60    61    1
   142   160   159    1
   143   160   161    2
   144   196   195    2
   145   214   212   ar
   146   146   148   ar
   147   159   158    1
   148   159   162    1
   149    63    62    2
   150   209   208    1
   151   209   210   ar
   152    71    72    2
   153    71    70    1
   154   205   208    1
   155   205   206    1
   156   205   204    1
   157   147   150   ar
   158   147   149   ar
   159    61    62    1
   160    61    64    1
   161    62    69   am
   162   150   152   ar
   163   195   204   am
   164   195   194    1
   165    69    70    1
   166   212   210   ar
   167   206   207    2
   168   148   149   ar
   169    70    73    1
   170   190   191    1
   171   190   189    1
   172   193   194    1
   173   193   191   am
   174   162   163    1
   175   149   151   ar
   176   194   197    1
   177    64    65    1
   178   191   192    2
   179   163   164    1
   180   152   153   ar
   181   197   198    1
   182    75    74    2
   183   189   179   am
   184   180   179    2
   185    73    74    1
   186   151   153   ar
   187    92    90    1
   188   179   178    1
   189    65    66    1
   190    74    76   am
   191   164   165   ar
   192   164   166   ar
   193    90    89    1
   194   198   199   ar
   195   198   200   ar
   196   199   201   ar
   197    91    89    1
   198    67    66   ar
   199   178   177    1
   200   178   181    1
   201    66    68   ar
   202    89    86    1
   203   200   202   ar
   204   201   203   ar
   205   181   182    1
   206    86    85    1
   207    86    87    1
   208   202   203   ar
   209   182   183   ar
   210   182   184   ar
   211   183   185   ar
   212    87    88    2
   213   184   186   ar
   214   185   187   ar
   215   186   187   ar
   216   187   188    1
