@<TRIPOS>MOLECULE
tmp/3bizA00.pdb
 151 142 0 0 0
SMALL
GASTEIGER

@<TRIPOS>ATOM
      1  N          0.8140   58.9030   20.4130 N.3    13  ILE13      -0.1231
      2  CA         1.6370   57.7040   20.1420 C.3    13  ILE13       0.1692
      3  C          0.8660   56.3920   20.3370 C.2    13  ILE13       0.2592
      4  O          1.3550   55.2940   20.0980 O.2    13  ILE13      -0.2718
      5  CB         2.9620   57.7600   20.9560 C.3    13  ILE13       0.0266
      6  CG1        2.6690   57.7620   22.4920 C.3    13  ILE13       0.0019
      7  CG2        3.8070   59.0140   20.4770 C.3    13  ILE13       0.0020
      8  CD1        3.9400   57.6180   23.3990 C.3    13  ILE13       0.0001
      9  N         -0.3610   56.4970   20.7910 N.am   14  GLY14      -0.1957
     10  CA        -1.1090   55.3070   20.9990 C.3    14  GLY14       0.1869
     11  C         -2.5540   55.6340   21.2220 C.2    14  GLY14       0.2309
     12  O         -2.9010   56.6650   21.7990 O.2    14  GLY14      -0.2863
     13  N         -2.5750   57.8440   24.3640 N.3    17  VAL17      -0.1245
     14  CA        -1.2720   58.1250   24.9400 C.3    17  VAL17       0.1561
     15  C         -0.5790   59.2090   24.1090 C.2    17  VAL17       0.2260
     16  O         -0.5930   59.1590   22.9090 O.2    17  VAL17      -0.2867
     17  CB        -0.4050   56.8660   25.0560 C.3    17  VAL17       0.0252
     18  CG1        0.9440   57.1860   25.7760 C.3    17  VAL17       0.0019
     19  CG2       -1.1540   55.7820   25.8990 C.3    17  VAL17       0.0019
     20  N          5.5980   59.9590   28.4960 N.3    30  ALA30      -0.1245
     21  CA         4.4330   59.3470   27.8900 C.3    30  ALA30       0.1562
     22  C          3.2780   59.6100   28.8640 C.2    30  ALA30       0.2260
     23  O          3.3500   59.2630   30.0200 O.2    30  ALA30      -0.2867
     24  CB         4.6710   57.8400   27.7010 C.3    30  ALA30       0.0290
     25  N         -0.7390   58.8510   29.4420 N.3    32  LYS32      -0.1245
     26  CA        -2.0120   58.1950   29.0930 C.3    32  LYS32       0.1561
     27  C         -3.1990   58.9920   29.7000 C.2    32  LYS32       0.2260
     28  O         -3.2100   59.3210   30.8930 O.2    32  LYS32      -0.2867
     29  CB        -2.0360   56.6690   29.4270 C.3    32  LYS32       0.0271
     30  CG        -3.3730   55.9350   29.0570 C.3    32  LYS32       0.0035
     31  CD        -3.4500   54.3590   29.2770 C.3    32  LYS32       0.0206
     32  CE        -3.3050   53.8650   30.8590 C.3    32  LYS32       0.1093
     33  NZ        -4.5000   53.9930   31.8920 N.3    32  LYS32      -0.1314
     34  N         -3.7830   50.1180   38.6820 N.3    47  GLU47      -0.1245
     35  CA        -2.6940   50.4800   37.7690 C.3    47  GLU47       0.1567
     36  C         -1.7160   51.5230   38.4300 C.2    47  GLU47       0.2260
     37  O         -0.4840   51.4010   38.3540 O.2    47  GLU47      -0.2867
     38  CB        -3.2320   50.9940   36.4050 C.3    47  GLU47       0.0388
     39  CG        -2.0890   51.3930   35.4770 C.3    47  GLU47       0.1160
     40  CD        -2.5290   51.7180   34.0720 C.2    47  GLU47       0.3649
     41  OE1       -3.7140   51.9530   33.8710 O.co2  47  GLU47      -0.2457
     42  OE2       -1.6840   51.7110   33.1460 O.co2  47  GLU47      -0.2457
     43  N          2.0850   51.0810   39.7490 N.3    51  HIS51      -0.1241
     44  CA         3.1300   51.9890   39.2800 C.3    51  HIS51       0.1621
     45  C          3.8570   52.6680   40.3710 C.2    51  HIS51       0.2264
     46  O          5.0390   52.8180   40.3070 O.2    51  HIS51      -0.2867
     47  CB         2.5720   53.1250   38.3700 C.3    51  HIS51       0.0745
     48  CG         2.6880   52.8270   36.9180 C.ar   51  HIS51       0.0817
     49  ND1        3.8890   52.5240   36.3250 N.ar   51  HIS51      -0.2268
     50  CD2        1.7530   52.7760   35.9410 C.ar   51  HIS51       0.1154
     51  CE1        3.6990   52.2810   35.0430 C.ar   51  HIS51       0.1986
     52  NE2        2.4100   52.4110   34.7900 N.ar   51  HIS51      -0.2212
     53  N          8.9900   50.3880   33.2690 N.3    61  VAL61      -0.1245
     54  CA         8.7040   51.7930   32.9730 C.3    61  VAL61       0.1561
     55  C          8.4600   52.6090   34.2630 C.2    61  VAL61       0.2260
     56  O          7.5910   52.2650   35.0510 O.2    61  VAL61      -0.2867
     57  CB         7.4680   51.8950   31.9800 C.3    61  VAL61       0.0252
     58  CG1        6.9990   53.3140   31.8820 C.3    61  VAL61       0.0019
     59  CG2        7.8960   51.4110   30.5980 C.3    61  VAL61       0.0019
     60  N         -2.0200   59.4880   33.6480 N.3    75  ILE75      -0.1245
     61  CA        -0.8190   58.9110   34.2120 C.3    75  ILE75       0.1561
     62  C          0.4000   59.3340   33.3400 C.2    75  ILE75       0.2260
     63  O          0.4030   59.1350   32.1320 O.2    75  ILE75      -0.2867
     64  CB        -0.9340   57.3770   34.5310 C.3    75  ILE75       0.0252
     65  CG1        0.4290   56.7990   34.9280 C.3    75  ILE75       0.0019
     66  CG2       -1.4070   56.5820   33.3860 C.3    75  ILE75       0.0019
     67  CD1        0.3110   55.6890   35.9710 C.3    75  ILE75       0.0001
     68  N          4.2540   58.8420   32.5970 N.3    77  ASN77      -0.1225
     69  CA         5.2240   57.7840   32.7830 C.3    77  ASN77       0.1785
     70  C          6.4920   58.1630   31.9690 C.2    77  ASN77       0.2597
     71  O          6.4700   59.1250   31.1490 O.2    77  ASN77      -0.2718
     72  CB         4.6400   56.4360   32.2850 C.3    77  ASN77       0.1169
     73  CG         3.7250   55.7840   33.2800 C.2    77  ASN77       0.2627
     74  OD1        3.7210   56.1340   34.4560 O.2    77  ASN77      -0.2716
     75  ND2        2.9790   54.7780   32.8400 N.am   77  ASN77      -0.0877
     76  N          7.5860   57.4340   32.2150 N.am   78  GLU78      -0.1965
     77  CA         8.8550   57.5290   31.4700 C.3    78  GLU78       0.1733
     78  C          8.5570   57.2640   29.9590 C.2    78  GLU78       0.2616
     79  O          7.8030   56.2980   29.6000 O.2    78  GLU78      -0.2715
     80  CB         9.7770   56.4250   31.9580 C.3    78  GLU78       0.0429
     81  CG        10.9990   56.1250   31.0900 C.3    78  GLU78       0.1163
     82  CD        11.8660   55.0020   31.6570 C.2    78  GLU78       0.3649
     83  OE1       11.4650   54.2810   32.6030 O.co2  78  GLU78      -0.2457
     84  OE2       12.9790   54.8700   31.1630 O.co2  78  GLU78      -0.2457
     85  N          9.1140   58.1170   29.0880 N.am   79  TYR79      -0.1960
     86  CA         8.9530   57.9360   27.6700 C.3    79  TYR79       0.1771
     87  C         10.0540   56.9700   27.1440 C.2    79  TYR79       0.2620
     88  O         11.2730   57.1620   27.4040 O.2    79  TYR79      -0.2715
     89  CB         8.9810   59.2960   26.9400 C.3    79  TYR79       0.0574
     90  CG         8.9850   59.1870   25.4350 C.ar   79  TYR79      -0.0198
     91  CD1        7.8510   58.7280   24.7740 C.ar   79  TYR79      -0.0009
     92  CD2       10.1330   59.4530   24.6910 C.ar   79  TYR79      -0.0009
     93  CE1        7.8110   58.5970   23.4480 C.ar   79  TYR79       0.0417
     94  CE2       10.1320   59.3100   23.2750 C.ar   79  TYR79       0.0417
     95  CZ         8.9410   58.8830   22.6840 C.ar   79  TYR79       0.1957
     96  OH         8.8230   58.6750   21.3380 O.3    79  TYR79      -0.2866
     97  N          9.6710   55.9650   26.3680 N.am   80  CYS80      -0.1954
     98  CA        10.6770   55.0780   25.8270 C.3    80  CYS80       0.1843
     99  C         10.6980   55.3550   24.3810 C.2    80  CYS80       0.2625
    100  O          9.7280   55.1500   23.7170 O.2    80  CYS80      -0.2714
    101  CB        10.2860   53.6080   26.1240 C.3    80  CYS80       0.0997
    102  SG        10.3020   53.2850   27.9320 S.3    80  CYS80      -0.0797
    103  N         11.7700   55.9460   23.8910 N.am   81  ASN81      -0.1958
    104  CA        11.7890   56.3970   22.5140 C.3    81  ASN81       0.1819
    105  C         11.9140   55.3200   21.4120 C.2    81  ASN81       0.2622
    106  O         11.8040   55.6800   20.2330 O.2    81  ASN81      -0.2715
    107  CB        12.8610   57.4440   22.2960 C.3    81  ASN81       0.1195
    108  CG        14.2620   56.8500   22.3060 C.2    81  ASN81       0.2630
    109  OD1       14.4920   55.6820   22.7040 O.2    81  ASN81      -0.2716
    110  ND2       15.2170   57.6520   21.8180 N.am   81  ASN81      -0.0877
    111  N         12.0830   54.0420   21.7800 N.am   82  GLY82      -0.1940
    112  CA        12.1740   52.9500   20.7910 C.3    82  GLY82       0.2014
    113  C         10.8430   52.2730   20.4620 C.2    82  GLY82       0.2639
    114  O         10.7810   51.3940   19.6100 O.2    82  GLY82      -0.2714
    115  N          9.7500   52.7140   21.0600 N.am   83  GLY83      -0.1939
    116  CA         8.4690   52.0840   20.7360 C.3    83  GLY83       0.2014
    117  C          8.3050   50.7930   21.5660 C.2    83  GLY83       0.2639
    118  O          9.0450   50.5300   22.5210 O.2    83  GLY83      -0.2714
    119  N          7.3610   49.9520   21.1550 N.am   84  SER84      -0.1949
    120  CA         7.1390   48.6590   21.8580 C.3    84  SER84       0.1924
    121  C          7.8790   47.5670   21.0640 C.2    84  SER84       0.2314
    122  O          8.2690   47.7770   19.9200 O.2    84  SER84      -0.2863
    123  CB         5.6360   48.3400   21.9550 C.3    84  SER84       0.2116
    124  OG         5.1370   48.1760   20.6290 O.3    84  SER84      -0.2180
    125  N          6.1780   46.5790   17.8090 N.3    87  ASP87      -0.1239
    126  CA         6.5070   47.2400   16.5170 C.3    87  ASP87       0.1674
    127  C          7.8500   46.7930   15.9870 C.2    87  ASP87       0.2266
    128  O          8.0330   46.7340   14.7650 O.2    87  ASP87      -0.2867
    129  CB         6.6300   48.7780   16.6520 C.3    87  ASP87       0.1410
    130  CG         5.3350   49.4800   17.1450 C.2    87  ASP87       0.3668
    131  OD1        5.4270   50.3100   18.1230 O.co2  87  ASP87      -0.2456
    132  OD2        4.2520   49.1800   16.6140 O.co2  87  ASP87      -0.2456
    133  N          8.5030   47.9640   26.3140 N.3   134  PHE134     -0.1241
    134  CA         8.9880   49.1820   25.6590 C.3   134  PHE134      0.1605
    135  C         10.5020   49.2240   25.5750 C.2   134  PHE134      0.2264
    136  O         11.1820   48.6420   26.3910 O.2   134  PHE134     -0.2867
    137  CB         8.3740   50.4170   26.3930 C.3   134  PHE134      0.0534
    138  CG         6.8820   50.4600   26.2560 C.ar  134  PHE134     -0.0203
    139  CD1        6.2960   50.8710   25.0460 C.ar  134  PHE134     -0.0042
    140  CD2        6.0660   49.9880   27.2900 C.ar  134  PHE134     -0.0042
    141  CE1        4.8920   50.8350   24.8990 C.ar  134  PHE134     -0.0003
    142  CE2        4.6520   49.9710   27.1580 C.ar  134  PHE134     -0.0003
    143  CZ         4.0610   50.3820   26.0060 C.ar  134  PHE134     -0.0000
    144  N          2.5380   49.1200   30.8710 N.3   144  ASP144     -0.1239
    145  CA         1.1140   48.7960   30.9330 C.3   144  ASP144      0.1674
    146  C          0.7470   47.9330   32.1600 C.2   144  ASP144      0.2266
    147  O          0.6520   46.6990   32.0870 O.2   144  ASP144     -0.2867
    148  CB         0.5590   48.2170   29.6350 C.3   144  ASP144      0.1410
    149  CG        -0.9710   48.3040   29.5710 C.2   144  ASP144      0.3668
    150  OD1       -1.4610   48.3160   28.4390 O.co2 144  ASP144     -0.2456
    151  OD2       -1.6750   48.4490   30.6190 O.co2 144  ASP144     -0.2456
@<TRIPOS>BOND
     1   128   127    2
     2   127   126    1
     3   126   129    1
     4   126   125    1
     5   132   130   ar
     6   129   130    1
     7   130   131   ar
     8   114   113    2
     9   122   121    2
    10     4     3    2
    11     2     3    1
    12     2     1    1
    13     2     5    1
    14   106   105    2
    15     3     9   am
    16   113   112    1
    17   113   115   am
    18     7     5    1
    19   124   123    1
    20   116   115    1
    21   116   117    1
    22     9    10    1
    23   112   111    1
    24     5     6    1
    25    10    11    1
    26   121   120    1
    27   119   117   am
    28   119   120    1
    29    11    12    2
    30    96    95    1
    31   105   111   am
    32   105   104    1
    33   117   118    2
    34   110   108   am
    35   120   123    1
    36   107   108    1
    37   107   104    1
    38   108   109    2
    39     6     8    1
    40   104   103    1
    41    95    94   ar
    42    95    93   ar
    43    16    15    2
    44    94    92   ar
    45    93    91   ar
    46   100    99    2
    47   103    99   am
    48    15    14    1
    49    13    14    1
    50    99    98    1
    51    92    90   ar
    52    91    90   ar
    53   141   139   ar
    54   141   143   ar
    55    14    17    1
    56   139   138   ar
    57    17    18    1
    58    17    19    1
    59    90    89    1
    60   135   134    1
    61   135   136    2
    62   134   133    1
    63   134   137    1
    64    98   101    1
    65    98    97    1
    66   143   142   ar
    67   101   102    1
    68   138   137    1
    69   138   140   ar
    70    97    87   am
    71    89    86    1
    72    87    88    2
    73    87    86    1
    74   142   140   ar
    75    86    85    1
    76    24    21    1
    77    21    20    1
    78    21    22    1
    79   150   149   ar
    80    22    23    2
    81    30    31    1
    82    30    29    1
    83    85    78   am
    84    26    29    1
    85    26    25    1
    86    26    27    1
    87    31    32    1
    88   149   148    1
    89   149   151   ar
    90    79    78    2
    91   148   145    1
    92    27    28    2
    93    78    77    1
    94    59    57    1
    95    32    33    1
    96   144   145    1
    97   145   146    1
    98    81    82    1
    99    81    80    1
   100    71    70    2
   101    84    82   ar
   102    77    80    1
   103    77    76    1
   104    82    83   ar
   105    58    57    1
   106    70    76   am
   107    70    69    1
   108    57    54    1
   109   147   146    2
   110    63    62    2
   111    72    69    1
   112    72    73    1
   113    68    69    1
   114    75    73   am
   115    54    53    1
   116    54    55    1
   117    42    40   ar
   118    73    74    2
   119    62    61    1
   120    66    64    1
   121    60    61    1
   122    41    40   ar
   123    40    39    1
   124    61    64    1
   125    55    56    2
   126    64    65    1
   127    52    51   ar
   128    52    50   ar
   129    65    67    1
   130    51    49   ar
   131    39    38    1
   132    50    48   ar
   133    49    48   ar
   134    38    35    1
   135    48    47    1
   136    35    36    1
   137    35    34    1
   138    37    36    2
   139    47    44    1
   140    44    43    1
   141    44    45    1
   142    46    45    2
