@<TRIPOS>MOLECULE
tmp/3bj2D00.pdb
 227 215 0 0 0
SMALL
GASTEIGER

@<TRIPOS>ATOM
      1  N         33.7790   -0.5410   69.5750 N.3    31  CYS31      -0.1235
      2  CA        33.8080   -0.4290   68.0930 C.3    31  CYS31       0.1677
      3  C         34.8910   -1.2970   67.4010 C.2    31  CYS31       0.2270
      4  O         34.5890   -2.0720   66.4520 O.2    31  CYS31      -0.2867
      5  CB        33.8600    1.0500   67.6770 C.3    31  CYS31       0.0956
      6  SG        33.6110    1.3100   65.8190 S.3    31  CYS31      -0.0801
      7  N         37.2870   -1.4550   61.4200 N.3    38  THR38      -0.1218
      8  CA        37.5280   -0.0530   61.8550 C.3    38  THR38       0.1862
      9  C         38.9560    0.1760   62.4130 C.2    38  THR38       0.2287
     10  O         39.4380    1.3230   62.4550 O.2    38  THR38      -0.2866
     11  CB        36.4480    0.4670   62.8260 C.3    38  THR38       0.1770
     12  OG1       36.4830   -0.2660   64.0630 O.3    38  THR38      -0.2211
     13  CG2       35.0240    0.2640   62.1850 C.3    38  THR38       0.0375
     14  N         41.8090    2.2550   60.1730 N.3    41  TYR41      -0.1227
     15  CA        41.9340    3.7120   60.3210 C.3    41  TYR41       0.1736
     16  C         42.9160    4.1580   61.4560 C.2    41  TYR41       0.2595
     17  O         43.4160    5.3020   61.4350 O.2    41  TYR41      -0.2718
     18  CB        40.5300    4.3340   60.5580 C.3    41  TYR41       0.0548
     19  CG        39.5870    4.0630   59.4120 C.ar   41  TYR41      -0.0200
     20  CD1       39.7390    4.7440   58.1860 C.ar   41  TYR41      -0.0009
     21  CD2       38.5900    3.0920   59.5060 C.ar   41  TYR41      -0.0009
     22  CE1       38.9100    4.4790   57.0940 C.ar   41  TYR41       0.0417
     23  CE2       37.7500    2.8300   58.4260 C.ar   41  TYR41       0.0417
     24  CZ        37.9120    3.5310   57.2150 C.ar   41  TYR41       0.1957
     25  OH        37.0810    3.2950   56.1270 O.3    41  TYR41      -0.2866
     26  N         43.1450    3.2710   62.4240 N.am   42  PHE42      -0.1976
     27  CA        43.9290    3.5580   63.6260 C.3    42  PHE42       0.1639
     28  C         45.2930    2.8470   63.6340 C.2    42  PHE42       0.2290
     29  O         45.7360    2.3840   64.6710 O.2    42  PHE42      -0.2864
     30  CB        43.1080    3.1640   64.8740 C.3    42  PHE42       0.0560
     31  CG        41.8930    4.0280   65.1020 C.ar   42  PHE42      -0.0200
     32  CD1       42.0240    5.3060   65.6430 C.ar   42  PHE42      -0.0042
     33  CD2       40.6310    3.5700   64.7830 C.ar   42  PHE42      -0.0042
     34  CE1       40.9060    6.0990   65.8490 C.ar   42  PHE42      -0.0003
     35  CE2       39.4980    4.3650   64.9840 C.ar   42  PHE42      -0.0003
     36  CZ        39.6340    5.6200   65.5190 C.ar   42  PHE42      -0.0000
     37  N         48.1370    3.6210   63.8900 N.3    44  ASN44      -0.1225
     38  CA        49.1800    4.2730   64.6820 C.3    44  ASN44       0.1785
     39  C         48.9120    4.2470   66.1850 C.2    44  ASN44       0.2597
     40  O         49.4260    5.0990   66.9270 O.2    44  ASN44      -0.2718
     41  CB        49.3790    5.7180   64.2130 C.3    44  ASN44       0.1169
     42  CG        50.1380    5.8110   62.8960 C.2    44  ASN44       0.2627
     43  OD1       49.7170    6.5240   61.9860 O.2    44  ASN44      -0.2716
     44  ND2       51.2640    5.0940   62.7910 N.am   44  ASN44      -0.0877
     45  N         48.1300    3.2670   66.6360 N.am   45  PHE45      -0.1976
     46  CA        47.7270    3.1930   68.0480 C.3    45  PHE45       0.1639
     47  C         48.1630    1.8900   68.7270 C.2    45  PHE45       0.2290
     48  O         47.4050    1.3190   69.5240 O.2    45  PHE45      -0.2864
     49  CB        46.1990    3.4060   68.1870 C.3    45  PHE45       0.0560
     50  CG        45.7580    4.8230   67.8990 C.ar   45  PHE45      -0.0200
     51  CD1       45.7840    5.3350   66.5910 C.ar   45  PHE45      -0.0042
     52  CD2       45.3300    5.6500   68.9270 C.ar   45  PHE45      -0.0042
     53  CE1       45.3900    6.6410   66.3180 C.ar   45  PHE45      -0.0003
     54  CE2       44.9420    6.9620   68.6680 C.ar   45  PHE45      -0.0003
     55  CZ        44.9690    7.4550   67.3630 C.ar   45  PHE45      -0.0000
     56  N         42.4350    8.1300   72.9360 N.3    63  HIS63      -0.1241
     57  CA        41.6510    8.6280   71.8100 C.3    63  HIS63       0.1621
     58  C         40.1760    8.4910   72.0800 C.2    63  HIS63       0.2264
     59  O         39.4030    9.3290   71.6270 O.2    63  HIS63      -0.2867
     60  CB        42.0280    7.9760   70.4730 C.3    63  HIS63       0.0745
     61  CG        41.4460    8.6970   69.3030 C.ar   63  HIS63       0.0817
     62  ND1       41.8120    9.9910   68.9690 N.ar   63  HIS63      -0.2268
     63  CD2       40.4320    8.3590   68.4640 C.ar   63  HIS63       0.1154
     64  CE1       41.0820   10.3920   67.9370 C.ar   63  HIS63       0.1986
     65  NE2       40.2230    9.4270   67.6260 N.ar   63  HIS63      -0.2212
     66  N         39.2530   11.6850   73.8980 N.3    66  THR66      -0.1203
     67  CA        39.1820   12.7240   72.8510 C.3    66  THR66       0.1994
     68  C         37.8210   12.7950   72.0810 C.2    66  THR66       0.2617
     69  O         37.2600   13.8820   71.8890 O.2    66  THR66      -0.2717
     70  CB        40.3720   12.5420   71.9120 C.3    66  THR66       0.1784
     71  OG1       41.5360   12.6420   72.7330 O.3    66  THR66      -0.2211
     72  CG2       40.4400   13.6400   70.7690 C.3    66  THR66       0.0376
     73  N         37.3140   11.6500   71.6390 N.am   67  ILE67      -0.1979
     74  CA        36.0360   11.5950   70.9640 C.3    67  ILE67       0.1595
     75  C         34.9360   12.1500   71.8700 C.2    67  ILE67       0.2287
     76  O         34.1390   12.9630   71.3860 O.2    67  ILE67      -0.2864
     77  CB        35.7280   10.1600   70.5010 C.3    67  ILE67       0.0276
     78  CG1       36.6880    9.7660   69.3760 C.3    67  ILE67       0.0022
     79  CG2       34.2170    9.9540   70.1230 C.3    67  ILE67       0.0022
     80  CD1       36.5770    8.2820   69.0200 C.3    67  ILE67       0.0001
     81  N         35.1390   15.7570   72.0500 N.3    70  GLY70      -0.1210
     82  CA        34.6800   16.2880   70.7590 C.3    70  GLY70       0.1956
     83  C         33.1570   16.3630   70.6990 C.2    70  GLY70       0.2611
     84  O         32.5940   17.3400   70.1560 O.2    70  GLY70      -0.2717
     85  N         32.4770   15.3520   71.2680 N.am   71  LEU71      -0.1979
     86  CA        31.0050   15.3710   71.3410 C.3    71  LEU71       0.1596
     87  C         30.4960   16.4320   72.3020 C.2    71  LEU71       0.2287
     88  O         29.5150   17.1240   71.9990 O.2    71  LEU71      -0.2864
     89  CB        30.4920   13.9720   71.7960 C.3    71  LEU71       0.0297
     90  CG        30.6260   12.8430   70.7790 C.3    71  LEU71       0.0022
     91  CD1       30.2670   11.4710   71.4090 C.3    71  LEU71       0.0001
     92  CD2       29.7950   13.1400   69.5230 C.3    71  LEU71       0.0001
     93  N         31.9230   19.2400   72.8490 N.3    73  ARG73      -0.1245
     94  CA        31.9260   20.4530   72.0040 C.3    73  ARG73       0.1563
     95  C         30.5440   20.7400   71.3090 C.2    73  ARG73       0.2260
     96  O         30.1010   21.8960   71.2610 O.2    73  ARG73      -0.2867
     97  CB        33.0570   20.3900   70.9620 C.3    73  ARG73       0.0307
     98  CG        33.4890   21.7250   70.4760 C.3    73  ARG73       0.0489
     99  CD        34.5150   21.6850   69.3900 C.3    73  ARG73       0.2205
    100  NE        35.6340   20.7820   69.6750 N.pl3  73  ARG73      -0.0865
    101  CZ        36.5050   20.4190   68.7490 C.cat  73  ARG73       0.5346
    102  NH1       37.4800   19.5580   69.0340 N.pl3  73  ARG73       0.1354
    103  NH2       36.3640   20.9150   67.5160 N.pl3  73  ARG73       0.1354
    104  N         31.7980   21.6720   63.7070 N.3    85  TYR85      -0.1241
    105  CA        32.4860   20.4830   63.1800 C.3    85  TYR85       0.1605
    106  C         33.1100   20.6540   61.7680 C.2    85  TYR85       0.2264
    107  O         33.5120   19.6450   61.1750 O.2    85  TYR85      -0.2867
    108  CB        31.5220   19.2840   63.1970 C.3    85  TYR85       0.0534
    109  CG        31.4150   18.5850   64.5310 C.ar   85  TYR85      -0.0201
    110  CD1       31.7910   19.2060   65.7170 C.ar   85  TYR85      -0.0009
    111  CD2       30.9250   17.2980   64.6010 C.ar   85  TYR85      -0.0009
    112  CE1       31.6810   18.5390   66.9700 C.ar   85  TYR85       0.0417
    113  CE2       30.8140   16.6190   65.8510 C.ar   85  TYR85       0.0417
    114  CZ        31.1600   17.2780   67.0270 C.ar   85  TYR85       0.1957
    115  OH        31.0400   16.6190   68.2290 O.3    85  TYR85      -0.2866
    116  N         36.8070   19.2400   61.6580 N.3    88  LEU88      -0.1245
    117  CA        36.7070   17.7690   61.8450 C.3    88  LEU88       0.1561
    118  C         36.1470   16.9990   60.6160 C.2    88  LEU88       0.2260
    119  O         36.5930   15.9200   60.3220 O.2    88  LEU88      -0.2867
    120  CB        35.9030   17.4240   63.1180 C.3    88  LEU88       0.0270
    121  CG        36.6110   17.7710   64.4440 C.3    88  LEU88       0.0019
    122  CD1       35.5850   17.6170   65.6030 C.3    88  LEU88       0.0001
    123  CD2       37.8090   16.7840   64.6280 C.3    88  LEU88       0.0001
    124  N         38.9720   16.8150   58.0720 N.3    91  LEU91      -0.1231
    125  CA        39.9390   15.8230   58.5800 C.3    91  LEU91       0.1693
    126  C         39.4750   14.4090   58.2840 C.2    91  LEU91       0.2592
    127  O         40.2490   13.6070   57.7350 O.2    91  LEU91      -0.2718
    128  CB        40.0560   15.9400   60.1100 C.3    91  LEU91       0.0284
    129  CG        40.8230   14.8320   60.8330 C.3    91  LEU91       0.0019
    130  CD1       42.3230   14.8070   60.3670 C.3    91  LEU91       0.0001
    131  CD2       40.6760   15.1350   62.3410 C.3    91  LEU91       0.0001
    132  N         38.2170   14.1040   58.6750 N.am   92  HIS92      -0.1976
    133  CA        37.7160   12.7110   58.6000 C.3    92  HIS92       0.1656
    134  C         37.3580   12.3210   57.1870 C.2    92  HIS92       0.2291
    135  O         37.3160   11.1480   56.8780 O.2    92  HIS92      -0.2864
    136  CB        36.5230   12.4390   59.4960 C.3    92  HIS92       0.0771
    137  CG        36.8470   12.3570   60.9610 C.ar   92  HIS92       0.0820
    138  ND1       36.8950   13.4710   61.7760 N.ar   92  HIS92      -0.2267
    139  CD2       37.1280   11.2940   61.7510 C.ar   92  HIS92       0.1154
    140  CE1       37.1900   13.0880   63.0180 C.ar   92  HIS92       0.1986
    141  NE2       37.3250   11.7710   63.0230 N.ar   92  HIS92      -0.2212
    142  N         41.5280   11.5970   56.1220 N.3    96  LEU96      -0.1245
    143  CA        41.4530   10.2300   56.6670 C.3    96  LEU96       0.1561
    144  C         40.6120    9.2540   55.8260 C.2    96  LEU96       0.2260
    145  O         40.7420    8.0210   55.9370 O.2    96  LEU96      -0.2867
    146  CB        40.9400   10.2350   58.1210 C.3    96  LEU96       0.0270
    147  CG        41.7780   11.0220   59.1120 C.3    96  LEU96       0.0019
    148  CD1       41.1250   11.0440   60.4600 C.3    96  LEU96       0.0001
    149  CD2       43.2190   10.5130   59.2500 C.3    96  LEU96       0.0001
    150  N         37.5050    8.3850   55.9260 N.3    98  VAL98      -0.1245
    151  CA        36.6850    7.4770   56.7370 C.3    98  VAL98       0.1561
    152  C         35.3100    7.2220   56.0580 C.2    98  VAL98       0.2260
    153  O         34.4990    8.1430   55.9520 O.2    98  VAL98      -0.2867
    154  CB        36.4500    8.0130   58.1680 C.3    98  VAL98       0.0252
    155  CG1       35.5640    7.0180   58.9480 C.3    98  VAL98       0.0019
    156  CG2       37.7710    8.2250   58.8990 C.3    98  VAL98       0.0019
    157  N         31.0110    4.0320   59.0150 N.3   102  ASN102     -0.1225
    158  CA        31.7440    3.9700   60.2720 C.3   102  ASN102      0.1785
    159  C         31.3050    4.9030   61.3820 C.2   102  ASN102      0.2597
    160  O         31.4520    4.6040   62.6080 O.2   102  ASN102     -0.2718
    161  CB        33.2650    4.0840   59.9790 C.3   102  ASN102      0.1169
    162  CG        33.7550    2.9260   59.0940 C.2   102  ASN102      0.2627
    163  OD1       33.6190    1.7490   59.4710 O.2   102  ASN102     -0.2716
    164  ND2       34.2340    3.2410   57.8920 N.am  102  ASN102     -0.0877
    165  N         30.8010    6.0670   60.9900 N.am  103  PHE103     -0.1976
    166  CA        30.2370    6.9940   61.9920 C.3   103  PHE103      0.1639
    167  C         28.9970    6.3640   62.6460 C.2   103  PHE103      0.2290
    168  O         28.8070    6.4740   63.8490 O.2   103  PHE103     -0.2864
    169  CB        29.8730    8.3700   61.4130 C.3   103  PHE103      0.0560
    170  CG        31.0280    9.1040   60.7770 C.ar  103  PHE103     -0.0200
    171  CD1       32.1730    9.4310   61.5130 C.ar  103  PHE103     -0.0042
    172  CD2       30.9620    9.4750   59.4250 C.ar  103  PHE103     -0.0042
    173  CE1       33.2390   10.1520   60.8950 C.ar  103  PHE103     -0.0003
    174  CE2       32.0100   10.1430   58.7950 C.ar  103  PHE103     -0.0003
    175  CZ        33.1530   10.4730   59.5260 C.ar  103  PHE103     -0.0000
    176  N         30.1090    3.5670   65.2160 N.3   106  LEU106     -0.1231
    177  CA        30.6260    4.0920   66.4760 C.3   106  LEU106      0.1693
    178  C         29.5560    4.6540   67.3490 C.2   106  LEU106      0.2592
    179  O         29.5900    4.4670   68.5970 O.2   106  LEU106     -0.2718
    180  CB        31.7610    5.1380   66.2240 C.3   106  LEU106      0.0284
    181  CG        32.4660    5.6660   67.4920 C.3   106  LEU106      0.0019
    182  CD1       33.3600    4.6560   68.1770 C.3   106  LEU106      0.0001
    183  CD2       33.3360    6.9070   67.1080 C.3   106  LEU106      0.0001
    184  N         28.6490    5.4100   66.7260 N.am  107  SER107     -0.1952
    185  CA        27.4470    5.9760   67.3860 C.3   107  SER107      0.1924
    186  C         26.5990    4.8780   68.0400 C.2   107  SER107      0.2314
    187  O         26.1560    5.0070   69.1830 O.2   107  SER107     -0.2863
    188  CB        26.5580    6.6840   66.3260 C.3   107  SER107      0.2116
    189  OG        27.1800    7.8950   65.9530 O.3   107  SER107     -0.2180
    190  N         28.4360    3.7290   71.1400 N.3   110  LEU110     -0.1245
    191  CA        28.2110    4.6980   72.2380 C.3   110  LEU110      0.1561
    192  C         26.8270    4.5260   72.8540 C.2   110  LEU110      0.2260
    193  O         26.6660    4.4540   74.1110 O.2   110  LEU110     -0.2867
    194  CB        28.3630    6.1410   71.7300 C.3   110  LEU110      0.0270
    195  CG        28.1820    7.2900   72.7160 C.3   110  LEU110      0.0019
    196  CD1       29.2510    7.3290   73.8750 C.3   110  LEU110      0.0001
    197  CD2       28.1810    8.5840   71.9020 C.3   110  LEU110      0.0001
    198  N         23.0660   12.4610   67.8750 N.3   134  LEU134     -0.1245
    199  CA        24.1160   11.7240   67.1280 C.3   134  LEU134      0.1561
    200  C         23.8860   11.8340   65.6180 C.2   134  LEU134      0.2260
    201  O         24.8770   11.9910   64.8970 O.2   134  LEU134     -0.2867
    202  CB        24.2110   10.2130   67.5140 C.3   134  LEU134      0.0270
    203  CG        24.5860    9.9240   69.0100 C.3   134  LEU134      0.0019
    204  CD1       24.5920    8.4020   69.2610 C.3   134  LEU134      0.0001
    205  CD2       25.9140   10.5270   69.3950 C.3   134  LEU134      0.0001
    206  N         25.2530   15.3710   64.6600 N.3   137  VAL137     -0.1231
    207  CA        26.7300   15.1710   64.7740 C.3   137  VAL137      0.1692
    208  C         27.3210   14.3950   63.5600 C.2   137  VAL137      0.2591
    209  O         28.1310   14.9150   62.8820 O.2   137  VAL137     -0.2718
    210  CB        27.0710   14.4340   66.0650 C.3   137  VAL137      0.0266
    211  CG1       28.5490   13.9700   66.0650 C.3   137  VAL137      0.0020
    212  CG2       26.8100   15.3080   67.2930 C.3   137  VAL137      0.0020
    213  N         26.8250   13.2030   63.2680 N.am  138  VAL138     -0.1980
    214  CA        27.2400   12.4130   62.1440 C.3   138  VAL138      0.1595
    215  C         27.0520   13.1520   60.8090 C.2   138  VAL138      0.2287
    216  O         27.9300   13.1230   59.9510 O.2   138  VAL138     -0.2864
    217  CB        26.5380   11.0480   62.2260 C.3   138  VAL138      0.0276
    218  CG1       26.6580   10.2600   60.9160 C.3   138  VAL138      0.0022
    219  CG2       27.1160   10.2700   63.4490 C.3   138  VAL138      0.0022
    220  N         29.7990   15.7280   60.6570 N.3   141  LEU141     -0.1245
    221  CA        31.1280   15.0720   60.5390 C.3   141  LEU141      0.1561
    222  C         31.4450   14.4720   59.1540 C.2   141  LEU141      0.2260
    223  O         32.6150   14.3460   58.7920 O.2   141  LEU141     -0.2867
    224  CB        31.3340   13.9840   61.6040 C.3   141  LEU141      0.0270
    225  CG        31.9710   14.4660   62.8960 C.3   141  LEU141      0.0019
    226  CD1       31.6860   13.4620   64.0640 C.3   141  LEU141      0.0001
    227  CD2       33.4950   14.7740   62.7260 C.3   141  LEU141      0.0001
@<TRIPOS>BOND
     1   144   145    2
     2   144   143    1
     3   150   151    1
     4   153   152    2
     5   152   151    1
     6   142   143    1
     7    25    24    1
     8   143   146    1
     9   151   154    1
    10   135   134    2
    11    22    24   ar
    12    22    20   ar
    13   134   133    1
    14    24    23   ar
    15   127   126    2
    16   164   162   am
    17   124   125    1
    18   146   147    1
    19   154   156    1
    20   154   155    1
    21    20    19   ar
    22   126   125    1
    23   126   132   am
    24    23    21   ar
    25   125   128    1
    26   133   132    1
    27   133   136    1
    28   223   222    2
    29   174   172   ar
    30   174   175   ar
    31   157   158    1
    32   162   163    2
    33   162   161    1
    34   147   149    1
    35   147   148    1
    36   222   221    1
    37    19    21   ar
    38    19    18    1
    39   172   170   ar
    40   136   137    1
    41   175   173   ar
    42   216   215    2
    43   161   158    1
    44   128   129    1
    45    14    15    1
    46   158   159    1
    47    15    18    1
    48    15    16    1
    49   119   118    2
    50   130   129    1
    51   221   220    1
    52   221   224    1
    53   118   117    1
    54   170   169    1
    55   170   171   ar
    56   215   214    1
    57   129   131    1
    58   173   171   ar
    59   218   217    1
    60   137   139   ar
    61   137   138   ar
    62   165   159   am
    63   165   166    1
    64   107   106    2
    65   159   160    2
    66   169   166    1
    67     7     8    1
    68    17    16    2
    69    16    26   am
    70   224   225    1
    71   116   117    1
    72   139   141   ar
    73   106   105    1
    74   138   140   ar
    75   117   120    1
    76     8     9    1
    77     8    11    1
    78    43    42    2
    79   166   167    1
    80   214   217    1
    81   214   213    1
    82    13    11    1
    83   217   219    1
    84     9    10    2
    85    26    27    1
    86   167   168    2
    87   227   225    1
    88    44    42   am
    89    11    12    1
    90   209   208    2
    91   225   226    1
    92    42    41    1
    93   140   141   ar
    94   120   121    1
    95   105   108    1
    96   105   104    1
    97   108   109    1
    98   213   208   am
    99   208   207    1
   100    27    28    1
   101    27    30    1
   102    28    29    2
   103    37    38    1
   104    41    38    1
   105   121   123    1
   106   121   122    1
   107   109   111   ar
   108   109   110   ar
   109   111   113   ar
   110   206   207    1
   111    38    39    1
   112   207   210    1
   113    33    35   ar
   114    33    31   ar
   115    30    31    1
   116   201   200    2
   117    35    36   ar
   118    31    32   ar
   119   176   177    1
   120    36    34   ar
   121   200   199    1
   122    32    34   ar
   123   110   112   ar
   124     6     5    1
   125   113   114   ar
   126   189   188    1
   127   211   210    1
   128   210   212    1
   129    39    45   am
   130    39    40    2
   131   180   177    1
   132   180   181    1
   133    53    51   ar
   134    53    55   ar
   135   188   185    1
   136     4     3    2
   137   177   178    1
   138    51    50   ar
   139    45    46    1
   140   184   178   am
   141   184   185    1
   142   112   114   ar
   143   114   115    1
   144   183   181    1
   145   199   202    1
   146   199   198    1
   147   178   179    2
   148    55    54   ar
   149   185   186    1
   150     3     2    1
   151   181   182    1
   152   202   203    1
   153   103   101    1
   154    65    64   ar
   155    65    63   ar
   156     5     2    1
   157    50    49    1
   158    50    52   ar
   159    64    62   ar
   160   186   187    2
   161    46    49    1
   162    46    47    1
   163     2     1    1
   164    63    61   ar
   165    54    52   ar
   166    47    48    2
   167   101   102    1
   168   101   100    2
   169    62    61   ar
   170   203   204    1
   171   203   205    1
   172    80    78    1
   173    61    60    1
   174    78    77    1
   175    99   100    1
   176    99    98    1
   177    92    90    1
   178    79    77    1
   179    84    83    2
   180    60    57    1
   181    98    97    1
   182    77    74    1
   183    83    82    1
   184    83    85   am
   185    82    81    1
   186    72    70    1
   187    90    91    1
   188    90    89    1
   189    97    94    1
   190    74    73    1
   191    74    75    1
   192   190   191    1
   193    96    95    2
   194    85    86    1
   195    95    94    1
   196    86    89    1
   197    86    87    1
   198    76    75    2
   199    59    58    2
   200    73    68   am
   201   194   191    1
   202   194   195    1
   203    57    58    1
   204    57    56    1
   205    69    68    2
   206   197   195    1
   207    70    71    1
   208    70    67    1
   209    88    87    2
   210    94    93    1
   211    68    67    1
   212   191   192    1
   213   195   196    1
   214    67    66    1
   215   192   193    2
