@<TRIPOS>MOLECULE
tmp/3bj7A00.pdb
 244 244 0 0 0
SMALL
GASTEIGER

@<TRIPOS>ATOM
      1  N         47.7470   88.5630  105.7410 N.3     1  LYS1       -0.1245
      2  CA        46.3180   88.8980  105.9940 C.3     1  LYS1        0.1561
      3  C         45.4460   88.7420  104.7480 C.2     1  LYS1        0.2260
      4  O         44.2220   88.7730  104.8410 O.2     1  LYS1       -0.2867
      5  CB        46.1970   90.3260  106.5480 C.3     1  LYS1        0.0271
      6  CG        47.0720   91.3600  105.8630 C.3     1  LYS1        0.0035
      7  CD        48.5340   91.1920  106.2520 C.3     1  LYS1        0.0206
      8  CE        49.4160   92.2290  105.5790 C.3     1  LYS1        0.1093
      9  NZ        50.8320   92.1190  106.0300 N.3     1  LYS1       -0.1314
     10  N         31.2390   98.1760   92.7100 N.3    22  LEU22      -0.1245
     11  CA        32.0100   99.2070   92.0240 C.3    22  LEU22       0.1561
     12  C         31.0620  100.1030   91.2150 C.2    22  LEU22       0.2260
     13  O         31.2380  101.3210   91.1600 O.2    22  LEU22      -0.2867
     14  CB        33.0580   98.5750   91.0990 C.3    22  LEU22       0.0270
     15  CG        33.7250   99.5330   90.1010 C.3    22  LEU22       0.0019
     16  CD1       34.3190  100.7260   90.8460 C.3    22  LEU22       0.0001
     17  CD2       34.8010   98.7940   89.3140 C.3    22  LEU22       0.0001
     18  N         29.4390  102.3280   93.4380 N.3    25  TYR25      -0.1227
     19  CA        30.4240  103.3300   93.8290 C.3    25  TYR25       0.1736
     20  C         30.4950  104.4310   92.7710 C.2    25  TYR25       0.2595
     21  O         30.8050  105.5870   93.0770 O.2    25  TYR25      -0.2718
     22  CB        31.7920  102.6660   93.9950 C.3    25  TYR25       0.0548
     23  CG        32.8880  103.6040   94.4400 C.ar   25  TYR25      -0.0200
     24  CD1       33.6170  104.3490   93.5150 C.ar   25  TYR25      -0.0009
     25  CD2       33.1900  103.7560   95.7920 C.ar   25  TYR25      -0.0009
     26  CE1       34.6180  105.2190   93.9250 C.ar   25  TYR25       0.0417
     27  CE2       34.1850  104.6230   96.2110 C.ar   25  TYR25       0.0417
     28  CZ        34.8930  105.3500   95.2750 C.ar   25  TYR25       0.1957
     29  OH        35.8710  106.2190   95.6970 O.3    25  TYR25      -0.2866
     30  N         30.2010  104.0620   91.5260 N.am   26  GLU26      -0.1979
     31  CA        30.2230  105.0090   90.4180 C.3    26  GLU26       0.1602
     32  C         28.8310  105.6120   90.2360 C.2    26  GLU26       0.2287
     33  O         28.5520  106.2870   89.2420 O.2    26  GLU26      -0.2864
     34  CB        30.6760  104.2980   89.1380 C.3    26  GLU26       0.0415
     35  CG        32.0170  103.5780   89.2970 C.3    26  GLU26       0.1163
     36  CD        32.4330  102.8140   88.0550 C.2    26  GLU26       0.3649
     37  OE1       31.5470  102.2900   87.3530 O.co2  26  GLU26      -0.2457
     38  OE2       33.6480  102.7230   87.7900 O.co2  26  GLU26      -0.2457
     39  N         43.2670   96.8690   81.6930 N.3    84  LEU84      -0.1231
     40  CA        42.6210   96.7260   82.9910 C.3    84  LEU84       0.1693
     41  C         41.2270   97.3250   82.8640 C.2    84  LEU84       0.2592
     42  O         41.0800   98.5380   82.8020 O.2    84  LEU84      -0.2718
     43  CB        43.4150   97.4860   84.0530 C.3    84  LEU84       0.0284
     44  CG        42.8350   97.4750   85.4730 C.3    84  LEU84       0.0019
     45  CD1       42.8080   96.0430   86.0150 C.3    84  LEU84       0.0001
     46  CD2       43.6850   98.3710   86.3750 C.3    84  LEU84       0.0001
     47  N         40.2150   96.4650   82.8280 N.am   85  GLU85      -0.1966
     48  CA        38.8260   96.8900   82.6660 C.3    85  GLU85       0.1733
     49  C         38.1290   97.3470   83.9430 C.2    85  GLU85       0.2616
     50  O         37.4790   98.3850   83.9500 O.2    85  GLU85      -0.2715
     51  CB        38.0250   95.7540   82.0310 C.3    85  GLU85       0.0429
     52  CG        36.5290   96.0330   81.8480 C.3    85  GLU85       0.1163
     53  CD        36.2520   97.2410   80.9590 C.2    85  GLU85       0.3649
     54  OE1       36.8820   97.3650   79.8860 O.co2  85  GLU85      -0.2457
     55  OE2       35.3940   98.0650   81.3360 O.co2  85  GLU85      -0.2457
     56  N         38.2720   96.5670   85.0130 N.am   86  ASP86      -0.1957
     57  CA        37.6420   96.8550   86.3020 C.3    86  ASP86       0.1840
     58  C         38.6450   96.5620   87.4150 C.2    86  ASP86       0.2622
     59  O         39.4520   95.6360   87.3090 O.2    86  ASP86      -0.2715
     60  CB        36.3920   95.9800   86.4750 C.3    86  ASP86       0.1450
     61  CG        35.1080   96.7930   86.5820 C.2    86  ASP86       0.3671
     62  OD1       35.0640   97.9240   86.0570 O.co2  86  ASP86      -0.2456
     63  OD2       34.1300   96.2930   87.1830 O.co2  86  ASP86      -0.2456
     64  N         38.5750   97.3450   88.4860 N.am   87  PHE87      -0.1960
     65  CA        39.4910   97.2120   89.6120 C.3    87  PHE87       0.1771
     66  C         38.7200   97.6770   90.8450 C.2    87  PHE87       0.2620
     67  O         38.2120   98.7960   90.8550 O.2    87  PHE87      -0.2715
     68  CB        40.6880   98.1280   89.3720 C.3    87  PHE87       0.0574
     69  CG        41.8320   97.9130   90.3110 C.ar   87  PHE87      -0.0200
     70  CD1       42.8270   98.8760   90.4220 C.ar   87  PHE87      -0.0042
     71  CD2       41.9460   96.7430   91.0510 C.ar   87  PHE87      -0.0042
     72  CE1       43.9210   98.6780   91.2520 C.ar   87  PHE87      -0.0003
     73  CE2       43.0360   96.5340   91.8850 C.ar   87  PHE87      -0.0003
     74  CZ        44.0290   97.5030   91.9860 C.ar   87  PHE87      -0.0000
     75  N         38.6360   96.8390   91.8800 N.am   88  PHE88      -0.1960
     76  CA        37.8860   97.2140   93.0720 C.3    88  PHE88       0.1771
     77  C         38.2430   96.4430   94.3400 C.2    88  PHE88       0.2619
     78  O         38.5320   95.2450   94.3050 O.2    88  PHE88      -0.2715
     79  CB        36.3890   97.0290   92.8030 C.3    88  PHE88       0.0574
     80  CG        35.5030   97.4520   93.9410 C.ar   88  PHE88      -0.0200
     81  CD1       35.2460   98.7990   94.1800 C.ar   88  PHE88      -0.0042
     82  CD2       34.9120   96.5040   94.7670 C.ar   88  PHE88      -0.0042
     83  CE1       34.4070   99.1950   95.2290 C.ar   88  PHE88      -0.0003
     84  CE2       34.0730   96.8840   95.8170 C.ar   88  PHE88      -0.0003
     85  CZ        33.8200   98.2350   96.0470 C.ar   88  PHE88      -0.0000
     86  N         38.2050   97.1480   95.4640 N.am   89  VAL89      -0.1977
     87  CA        38.4650   96.5530   96.7690 C.3    89  VAL89       0.1596
     88  C         37.4110   97.1200   97.7170 C.2    89  VAL89       0.2287
     89  O         37.2730   98.3390   97.8390 O.2    89  VAL89      -0.2864
     90  CB        39.8690   96.9180   97.3040 C.3    89  VAL89       0.0276
     91  CG1       40.0350   96.3960   98.7330 C.3    89  VAL89       0.0022
     92  CG2       40.9440   96.3230   96.4040 C.3    89  VAL89       0.0022
     93  N         38.2500   97.0190  103.4230 N.3    93  TYR93      -0.1227
     94  CA        39.5380   96.3990  103.1510 C.3    93  TYR93       0.1736
     95  C         40.5530   97.2300  102.3830 C.2    93  TYR93       0.2595
     96  O         41.6020   96.7180  101.9930 O.2    93  TYR93      -0.2718
     97  CB        39.2940   95.0660  102.4420 C.3    93  TYR93       0.0548
     98  CG        38.4210   94.1480  103.2640 C.ar   93  TYR93      -0.0200
     99  CD1       38.9770   93.2870  104.2150 C.ar   93  TYR93      -0.0009
    100  CD2       37.0300   94.1940  103.1500 C.ar   93  TYR93      -0.0009
    101  CE1       38.1630   92.4970  105.0380 C.ar   93  TYR93       0.0417
    102  CE2       36.2100   93.4110  103.9650 C.ar   93  TYR93       0.0417
    103  CZ        36.7820   92.5660  104.9050 C.ar   93  TYR93       0.1957
    104  OH        35.9720   91.7900  105.7050 O.3    93  TYR93      -0.2866
    105  N         40.2550   98.5090  102.1770 N.am   94  ARG94      -0.1966
    106  CA        41.1700   99.3880  101.4570 C.3    94  ARG94       0.1729
    107  C         42.2350   99.9420  102.3960 C.2    94  ARG94       0.2617
    108  O         42.0270  100.0230  103.6040 O.2    94  ARG94      -0.2715
    109  CB        40.4060  100.5580  100.8310 C.3    94  ARG94       0.0348
    110  CG        39.4070  100.1560   99.7680 C.3    94  ARG94       0.0492
    111  CD        38.5370  101.3300   99.3540 C.3    94  ARG94       0.2205
    112  NE        37.4040  100.8790   98.5520 N.pl3  94  ARG94      -0.0865
    113  CZ        36.2270  101.4940   98.5090 C.cat  94  ARG94       0.5346
    114  NH1       36.0250  102.5940   99.2220 N.pl3  94  ARG94       0.1354
    115  NH2       35.2450  100.9940   97.7740 N.pl3  94  ARG94       0.1354
    116  N         43.3810  100.3140  101.8350 N.am   95  GLY95      -0.1940
    117  CA        44.4380  100.8880  102.6450 C.3    95  GLY95       0.2014
    118  C         45.4570   99.9450  103.2530 C.2    95  GLY95       0.2639
    119  O         46.3840  100.4020  103.9240 O.2    95  GLY95      -0.2714
    120  N         45.3160   98.6420  103.0280 N.am   96  PHE96      -0.1959
    121  CA        46.2660   97.6970  103.6040 C.3    96  PHE96       0.1771
    122  C         47.2880   97.1120  102.6280 C.2    96  PHE96       0.2620
    123  O         48.2270   96.4390  103.0500 O.2    96  PHE96      -0.2715
    124  CB        45.5170   96.5660  104.3060 C.3    96  PHE96       0.0574
    125  CG        44.5960   97.0380  105.3970 C.ar   96  PHE96      -0.0200
    126  CD1       43.2600   97.3260  105.1240 C.ar   96  PHE96      -0.0042
    127  CD2       45.0640   97.2020  106.6980 C.ar   96  PHE96      -0.0042
    128  CE1       42.4010   97.7700  106.1350 C.ar   96  PHE96      -0.0003
    129  CE2       44.2160   97.6450  107.7170 C.ar   96  PHE96      -0.0003
    130  CZ        42.8810   97.9290  107.4350 C.ar   96  PHE96      -0.0000
    131  N         47.1110   97.3660  101.3320 N.am   97  GLY97      -0.1940
    132  CA        48.0510   96.8510  100.3470 C.3    97  GLY97       0.2014
    133  C         47.4600   95.9100   99.3090 C.2    97  GLY97       0.2639
    134  O         48.1550   95.5110   98.3790 O.2    97  GLY97      -0.2714
    135  N         46.1860   95.5560   99.4660 N.am   98  ILE98      -0.1963
    136  CA        45.5070   94.6520   98.5420 C.3    98  ILE98       0.1727
    137  C         45.5520   95.1750   97.1020 C.2    98  ILE98       0.2617
    138  O         46.0470   94.4940   96.1980 O.2    98  ILE98      -0.2715
    139  CB        44.0420   94.4280   98.9820 C.3    98  ILE98       0.0290
    140  CG1       44.0230   93.7750  100.3670 C.3    98  ILE98       0.0022
    141  CG2       43.3140   93.5370   97.9800 C.3    98  ILE98       0.0023
    142  CD1       42.6340   93.4730  100.9040 C.3    98  ILE98       0.0001
    143  N         45.0410   96.3850   96.8970 N.am   99  GLY99      -0.1940
    144  CA        45.0580   96.9790   95.5750 C.3    99  GLY99       0.2014
    145  C         46.4580   96.9660   94.9870 C.2    99  GLY99       0.2639
    146  O         46.6560   96.5560   93.8380 O.2    99  GLY99      -0.2714
    147  N         47.4340   97.4100   95.7740 N.am  100  SER100     -0.1949
    148  CA        48.8200   97.4420   95.3260 C.3   100  SER100      0.1924
    149  C         49.3070   96.0500   94.9490 C.2   100  SER100      0.2314
    150  O         50.0290   95.8850   93.9720 O.2   100  SER100     -0.2863
    151  CB        49.7270   98.0220   96.4140 C.3   100  SER100      0.2116
    152  OG        49.4870   99.4080   96.5870 O.3   100  SER100     -0.2180
    153  N         44.1540  101.6100   81.1060 N.3   120  PHE120     -0.1227
    154  CA        42.9380  101.5210   81.9020 C.3   120  PHE120      0.1736
    155  C         42.2080  102.8550   81.8790 C.2   120  PHE120      0.2595
    156  O         42.2410  103.5630   80.8760 O.2   120  PHE120     -0.2718
    157  CB        43.2420  101.1060   83.3490 C.3   120  PHE120      0.0547
    158  CG        44.4060  101.8270   83.9680 C.ar  120  PHE120     -0.0202
    159  CD1       45.7090  101.4010   83.7340 C.ar  120  PHE120     -0.0042
    160  CD2       44.1980  102.9130   84.8170 C.ar  120  PHE120     -0.0042
    161  CE1       46.7870  102.0400   84.3380 C.ar  120  PHE120     -0.0003
    162  CE2       45.2690  103.5610   85.4260 C.ar  120  PHE120     -0.0003
    163  CZ        46.5660  103.1240   85.1880 C.ar  120  PHE120     -0.0000
    164  N         41.5450  103.1990   82.9760 N.am  121  LEU121     -0.1980
    165  CA        40.8120  104.4560   83.0440 C.3   121  LEU121      0.1596
    166  C         40.8290  105.0460   84.4430 C.2   121  LEU121      0.2287
    167  O         40.6160  104.3420   85.4300 O.2   121  LEU121     -0.2864
    168  CB        39.3630  104.2500   82.5890 C.3   121  LEU121      0.0297
    169  CG        39.1810  103.8620   81.1200 C.3   121  LEU121      0.0022
    170  CD1       37.7200  103.5610   80.8380 C.3   121  LEU121      0.0001
    171  CD2       39.6760  104.9950   80.2330 C.3   121  LEU121      0.0001
    172  N         37.5690  113.2920   88.5460 N.3   125  TRP125     -0.1227
    173  CA        36.8860  113.6850   89.7710 C.3   125  TRP125      0.1737
    174  C         37.4690  113.0330   91.0220 C.2   125  TRP125      0.2595
    175  O         36.7930  112.9340   92.0480 O.2   125  TRP125     -0.2718
    176  CB        35.3890  113.3660   89.6780 C.3   125  TRP125      0.0564
    177  CG        35.0710  111.9720   89.2200 C.ar  125  TRP125      0.0003
    178  CD1       34.9310  111.5430   87.9300 C.ar  125  TRP125      0.0946
    179  CD2       34.8370  110.8270   90.0510 C.ar  125  TRP125      0.0152
    180  NE1       34.6200  110.2030   87.9070 N.ar  125  TRP125     -0.2442
    181  CE2       34.5570  109.7400   89.1940 C.ar  125  TRP125      0.0810
    182  CE3       34.8380  110.6150   91.4360 C.ar  125  TRP125      0.0012
    183  CZ2       34.2790  108.4570   89.6790 C.ar  125  TRP125      0.0191
    184  CZ3       34.5610  109.3380   91.9170 C.ar  125  TRP125      0.0001
    185  CH2       34.2860  108.2770   91.0390 C.ar  125  TRP125      0.0015
    186  N         38.7200  112.5900   90.9380 N.am  126  ASN126     -0.1974
    187  CA        39.3790  111.9620   92.0770 C.3   126  ASN126      0.1688
    188  C         40.8950  112.0800   92.0010 C.2   126  ASN126      0.2292
    189  O         41.5570  111.2930   91.3250 O.2   126  ASN126     -0.2864
    190  CB        38.9870  110.4840   92.1800 C.3   126  ASN126      0.1181
    191  CG        39.5620  109.8140   93.4170 C.2   126  ASN126      0.2629
    192  OD1       39.3160  110.2450   94.5450 O.2   126  ASN126     -0.2716
    193  ND2       40.3320  108.7540   93.2110 N.am  126  ASN126     -0.0877
    194  N         43.2570  108.7470   93.1700 N.3   129  SER129     -0.1217
    195  CA        43.6040  107.7530   92.1570 C.3   129  SER129      0.1889
    196  C         44.6660  108.2930   91.2140 C.2   129  SER129      0.2288
    197  O         45.7010  107.6600   91.0080 O.2   129  SER129     -0.2866
    198  CB        42.3690  107.3450   91.3530 C.3   129  SER129      0.2089
    199  OG        41.4660  106.6010   92.1510 O.3   129  SER129     -0.2183
    200  N         47.4820  108.0590   92.9440 N.3   132  PHE132     -0.1227
    201  CA        47.6230  106.6730   93.3780 C.3   132  PHE132      0.1736
    202  C         48.2640  105.9100   92.2320 C.2   132  PHE132      0.2595
    203  O         48.8680  104.8560   92.4220 O.2   132  PHE132     -0.2718
    204  CB        46.2530  106.0650   93.6860 C.3   132  PHE132      0.0547
    205  CG        46.3000  104.6030   94.0340 C.ar  132  PHE132     -0.0202
    206  CD1       46.9290  104.1680   95.1980 C.ar  132  PHE132     -0.0042
    207  CD2       45.7160  103.6570   93.1960 C.ar  132  PHE132     -0.0042
    208  CE1       46.9760  102.8130   95.5230 C.ar  132  PHE132     -0.0003
    209  CE2       45.7580  102.3000   93.5120 C.ar  132  PHE132     -0.0003
    210  CZ        46.3910  101.8780   94.6790 C.ar  132  PHE132     -0.0000
    211  N         48.1140  106.4590   91.0340 N.am  133  TYR133     -0.1976
    212  CA        48.6730  105.8610   89.8370 C.3   133  TYR133      0.1639
    213  C         49.9440  106.6130   89.4600 C.2   133  TYR133      0.2290
    214  O         50.9650  106.0050   89.1370 O.2   133  TYR133     -0.2864
    215  CB        47.6630  105.9440   88.6900 C.3   133  TYR133      0.0560
    216  CG        46.4590  105.0340   88.8280 C.ar  133  TYR133     -0.0198
    217  CD1       46.5980  103.6480   88.7890 C.ar  133  TYR133     -0.0009
    218  CD2       45.1770  105.5600   88.9560 C.ar  133  TYR133     -0.0009
    219  CE1       45.4860  102.8070   88.8690 C.ar  133  TYR133      0.0417
    220  CE2       44.0590  104.7290   89.0360 C.ar  133  TYR133      0.0417
    221  CZ        44.2220  103.3550   88.9900 C.ar  133  TYR133      0.1957
    222  OH        43.1200  102.5330   89.0530 O.3   133  TYR133     -0.2866
    223  N         52.0110  108.0390   91.2510 N.3   135  ARG135     -0.1231
    224  CA        53.1140  107.6580   92.1280 C.3   135  ARG135      0.1694
    225  C         53.6580  106.3090   91.6810 C.2   135  ARG135      0.2591
    226  O         54.7520  105.9010   92.0740 O.2   135  ARG135     -0.2718
    227  CB        52.6520  107.5620   93.5890 C.3   135  ARG135      0.0321
    228  CG        52.6120  108.8920   94.3360 C.3   135  ARG135      0.0489
    229  CD        52.3880  108.6810   95.8360 C.3   135  ARG135      0.2205
    230  NE        51.0300  108.2400   96.1530 N.pl3 135  ARG135     -0.0865
    231  CZ        49.9530  109.0170   96.0710 C.cat 135  ARG135      0.5346
    232  NH1       50.0710  110.2780   95.6820 N.pl3 135  ARG135      0.1354
    233  NH2       48.7580  108.5330   96.3770 N.pl3 135  ARG135      0.1354
    234  N         52.8800  105.6230   90.8520 N.am  136  ARG136     -0.1980
    235  CA        53.2610  104.3160   90.3350 C.3   136  ARG136      0.1597
    236  C         53.7920  104.4300   88.9090 C.2   136  ARG136      0.2287
    237  O         53.9390  103.4300   88.2030 O.2   136  ARG136     -0.2864
    238  CB        52.0580  103.3740   90.3960 C.3   136  ARG136      0.0334
    239  CG        51.6490  103.0450   91.8250 C.3   136  ARG136      0.0492
    240  CD        50.3570  102.2530   91.9050 C.3   136  ARG136      0.2205
    241  NE        50.1640  101.6780   93.2350 N.pl3 136  ARG136     -0.0865
    242  CZ        50.0230  102.3860   94.3530 C.cat 136  ARG136      0.5346
    243  NH1       50.0460  103.7100   94.3180 N.pl3 136  ARG136      0.1354
    244  NH2       49.8750  101.7650   95.5140 N.pl3 136  ARG136      0.1354
@<TRIPOS>BOND
     1    54    53   ar
     2   171   169    1
     3   170   169    1
     4   156   155    2
     5    53    55   ar
     6    53    52    1
     7   153   154    1
     8   169   168    1
     9    39    40    1
    10    52    51    1
    11   155   154    1
    12   155   164   am
    13   154   157    1
    14    51    48    1
    15   168   165    1
    16    48    47    1
    17    48    49    1
    18    42    41    2
    19    47    41   am
    20    41    40    1
    21   164   165    1
    22    40    43    1
    23   165   166    1
    24   157   158    1
    25   159   158   ar
    26   159   161   ar
    27    49    50    2
    28    49    56   am
    29   158   160   ar
    30    43    44    1
    31   161   163   ar
    32   166   167    2
    33   160   162   ar
    34    56    57    1
    35   163   162   ar
    36    44    45    1
    37    44    46    1
    38    62    61   ar
    39    57    60    1
    40    57    58    1
    41    60    61    1
    42    61    63   ar
    43    59    58    2
    44    37    36   ar
    45    58    64   am
    46    38    36   ar
    47   180   178   ar
    48   180   181   ar
    49   178   177   ar
    50    36    35    1
    51   237   236    2
    52    64    65    1
    53   172   173    1
    54   215   216    1
    55   215   212    1
    56   217   216   ar
    57   217   219   ar
    58   216   218   ar
    59   219   221   ar
    60   236   235    1
    61   218   220   ar
    62   221   220   ar
    63   221   222    1
    64   214   213    2
    65    34    35    1
    66    34    31    1
    67   181   183   ar
    68   181   179   ar
    69   177   176    1
    70   177   179   ar
    71    33    32    2
    72    17    15    1
    73    68    65    1
    74    68    69    1
    75   213   212    1
    76    65    66    1
    77   176   173    1
    78   183   185   ar
    79   173   174    1
    80   212   211    1
    81   179   182   ar
    82    15    16    1
    83    15    14    1
    84    32    31    1
    85    69    70   ar
    86    69    71   ar
    87   235   238    1
    88   235   234    1
    89   238   239    1
    90    31    30    1
    91    70    72   ar
    92    66    67    2
    93    66    75   am
    94   234   225   am
    95   186   174   am
    96   186   187    1
    97   197   196    2
    98   174   175    2
    99   211   202   am
   100   185   184   ar
   101    71    73   ar
   102    14    11    1
   103    13    12    2
   104   196   195    1
   105    12    11    1
   106   223   224    1
   107    72    74   ar
   108   189   188    2
   109   198   199    1
   110   198   195    1
   111   182   184   ar
   112    30    20   am
   113   225   226    2
   114   225   224    1
   115   239   240    1
   116    75    76    1
   117    73    74   ar
   118   240   241    1
   119   188   187    1
   120    11    10    1
   121   187   190    1
   122   224   227    1
   123   195   194    1
   124   190   191    1
   125   202   203    2
   126   202   201    1
   127    20    21    2
   128    20    19    1
   129    79    76    1
   130    79    80    1
   131   200   201    1
   132    76    77    1
   133   207   209   ar
   134   207   205   ar
   135   193   191   am
   136   241   242    2
   137   201   204    1
   138   191   192    2
   139    18    19    1
   140   209   210   ar
   141    24    26   ar
   142    24    23   ar
   143   227   228    1
   144   204   205    1
   145    19    22    1
   146   146   145    2
   147    26    28   ar
   148    80    81   ar
   149    80    82   ar
   150   150   149    2
   151    22    23    1
   152   205   206   ar
   153    81    83   ar
   154    78    77    2
   155   243   242    1
   156   228   229    1
   157    77    86   am
   158   242   244    1
   159    23    25   ar
   160   210   208   ar
   161    82    84   ar
   162   149   148    1
   163   145   144    1
   164   145   147   am
   165   206   208   ar
   166    83    85   ar
   167    28    29    1
   168    28    27   ar
   169   148   147    1
   170   148   151    1
   171    86    87    1
   172   144   143    1
   173   232   231    1
   174    25    27   ar
   175    84    85   ar
   176   229   230    1
   177   231   230    2
   178   231   233    1
   179   138   137    2
   180    92    90    1
   181   151   152    1
   182    87    90    1
   183    87    88    1
   184   143   137   am
   185   137   136    1
   186    90    91    1
   187    88    89    2
   188   115   113    1
   189   141   139    1
   190   134   133    2
   191   113   112    2
   192   113   114    1
   193   136   139    1
   194   136   135    1
   195   112   111    1
   196   139   140    1
   197   133   135   am
   198   133   132    1
   199   111   110    1
   200   110   109    1
   201   132   131    1
   202   140   142    1
   203   109   106    1
   204   131   122   am
   205   106   105    1
   206   106   107    1
   207   116   107   am
   208   116   117    1
   209    96    95    2
   210   105    95   am
   211    95    94    1
   212   107   108    2
   213    97    94    1
   214    97    98    1
   215   122   123    2
   216   122   121    1
   217   117   118    1
   218   120   118   am
   219   120   121    1
   220   100    98   ar
   221   100   102   ar
   222    94    93    1
   223   118   119    2
   224    98    99   ar
   225   121   124    1
   226   102   103   ar
   227    99   101   ar
   228   124   125    1
   229     3     4    2
   230     3     2    1
   231   103   101   ar
   232   103   104    1
   233   126   125   ar
   234   126   128   ar
   235   125   127   ar
   236     8     9    1
   237     8     7    1
   238     1     2    1
   239     6     7    1
   240     6     5    1
   241     2     5    1
   242   128   130   ar
   243   127   129   ar
   244   130   129   ar
