@<TRIPOS>MOLECULE
tmp/3bj8D00.pdb
 96 96 0 0 0
SMALL
GASTEIGER

@<TRIPOS>ATOM
      1  N         36.4280   26.2290   18.7250 N.3    78  THR78      -0.1218
      2  CA        36.5340   26.7820   20.0740 C.3    78  THR78       0.1862
      3  C         35.1620   27.2410   20.5140 C.2    78  THR78       0.2287
      4  O         34.2300   27.2800   19.7160 O.2    78  THR78      -0.2866
      5  CB        37.4810   27.9950   20.1330 C.3    78  THR78       0.1770
      6  OG1       37.0730   28.9560   19.1540 O.3    78  THR78      -0.2211
      7  CG2       38.9130   27.5620   19.8900 C.3    78  THR78       0.0375
      8  N         33.0030   30.2640   22.8480 N.3    80  ASP80      -0.1225
      9  CA        32.9810   31.5360   23.5500 C.3    80  ASP80       0.1790
     10  C         31.7040   31.5270   24.4070 C.2    80  ASP80       0.2440
     11  O         30.6060   31.2790   23.9090 O.2    80  ASP80      -0.2733
     12  CB        32.9480   32.6970   22.5610 C.3    80  ASP80       0.1423
     13  CG        32.7720   34.0360   23.2490 C.2    80  ASP80       0.3668
     14  OD1       33.7670   34.6010   23.7550 O.co2  80  ASP80      -0.2456
     15  OD2       31.6240   34.5160   23.3000 O.co2  80  ASP80      -0.2456
     16  N         31.8380   31.7930   25.7130 N.am   81  PRO81      -0.2718
     17  CA        30.7210   31.8140   26.6630 C.3    81  PRO81       0.1535
     18  C         29.5260   32.7000   26.3000 C.2    81  PRO81       0.2599
     19  O         28.4070   32.4240   26.7170 O.2    81  PRO81      -0.2715
     20  CB        31.3860   32.2650   27.9620 C.3    81  PRO81       0.0310
     21  CG        32.7920   31.7850   27.8030 C.3    81  PRO81       0.0237
     22  CD        33.0960   32.1420   26.3870 C.3    81  PRO81       0.0939
     23  N         29.7570   33.7620   25.5400 N.am   82  TRP82      -0.1960
     24  CA        28.6700   34.6600   25.1730 C.3    82  TRP82       0.1771
     25  C         28.0220   34.3740   23.8280 C.2    82  TRP82       0.2619
     26  O         26.8020   34.4560   23.7130 O.2    82  TRP82      -0.2715
     27  CB        29.1450   36.1130   25.1770 C.3    82  TRP82       0.0590
     28  CG        29.7990   36.5650   26.4590 C.ar   82  TRP82       0.0006
     29  CD1       29.8370   35.9000   27.6560 C.ar   82  TRP82       0.0946
     30  CD2       30.4810   37.8090   26.6690 C.ar   82  TRP82       0.0152
     31  NE1       30.5020   36.6600   28.5940 N.ar   82  TRP82      -0.2442
     32  CE2       30.9040   37.8350   28.0130 C.ar   82  TRP82       0.0810
     33  CE3       30.7730   38.9070   25.8460 C.ar   82  TRP82       0.0012
     34  CZ2       31.6060   38.9230   28.5580 C.ar   82  TRP82       0.0191
     35  CZ3       31.4760   39.9920   26.3920 C.ar   82  TRP82       0.0001
     36  CH2       31.8810   39.9870   27.7340 C.ar   82  TRP82       0.0015
     37  N         28.8240   34.0430   22.8150 N.am   83  ILE83      -0.1977
     38  CA        28.2950   33.7820   21.4780 C.3    83  ILE83       0.1596
     39  C         28.3820   32.3400   20.9920 C.2    83  ILE83       0.2287
     40  O         27.9090   32.0130   19.9000 O.2    83  ILE83      -0.2864
     41  CB        28.9780   34.6800   20.4360 C.3    83  ILE83       0.0276
     42  CG1       30.4720   34.3650   20.3850 C.3    83  ILE83       0.0022
     43  CG2       28.7270   36.1410   20.7810 C.3    83  ILE83       0.0022
     44  CD1       31.2360   35.1720   19.3620 C.3    83  ILE83       0.0001
     45  N         32.7570   28.7280   17.5760 N.3    86  LEU86      -0.1245
     46  CA        33.6500   29.5230   16.7390 C.3    86  LEU86       0.1561
     47  C         34.6120   28.6210   15.9890 C.2    86  LEU86       0.2260
     48  O         35.0590   27.6160   16.5200 O.2    86  LEU86      -0.2867
     49  CB        34.4810   30.4850   17.5920 C.3    86  LEU86       0.0270
     50  CG        33.7790   31.5620   18.4110 C.3    86  LEU86       0.0019
     51  CD1       34.8150   32.3690   19.1920 C.3    86  LEU86       0.0001
     52  CD2       32.9930   32.4660   17.4850 C.3    86  LEU86       0.0001
     53  N         38.2010   28.3440   14.7930 N.3    88  TYR88      -0.1241
     54  CA        39.4520   29.0550   15.0340 C.3    88  TYR88       0.1605
     55  C         40.5550   28.6220   14.0750 C.2    88  TYR88       0.2264
     56  O         41.0040   27.4820   14.1050 O.2    88  TYR88      -0.2867
     57  CB        39.9290   28.8530   16.4800 C.3    88  TYR88       0.0534
     58  CG        41.0940   29.7530   16.8280 C.ar   88  TYR88      -0.0201
     59  CD1       40.8810   31.0380   17.3350 C.ar   88  TYR88      -0.0009
     60  CD2       42.4040   29.3420   16.5990 C.ar   88  TYR88      -0.0009
     61  CE1       41.9560   31.8950   17.6110 C.ar   88  TYR88       0.0417
     62  CE2       43.4820   30.1860   16.8630 C.ar   88  TYR88       0.0417
     63  CZ        43.2500   31.4580   17.3690 C.ar   88  TYR88       0.1957
     64  OH        44.3140   32.2880   17.6240 O.3    88  TYR88      -0.2866
     65  N         37.8020   33.0310   13.8270 N.3   124  HIS124     -0.1241
     66  CA        38.8030   33.8970   14.4380 C.3   124  HIS124      0.1621
     67  C         40.2160   33.4120   14.1300 C.2   124  HIS124      0.2264
     68  O         40.4540   32.2160   13.9910 O.2   124  HIS124     -0.2867
     69  CB        38.6090   33.9420   15.9600 C.3   124  HIS124      0.0745
     70  CG        37.3350   34.5980   16.3930 C.ar  124  HIS124      0.0817
     71  ND1       36.9830   34.7340   17.7190 N.ar  124  HIS124     -0.2268
     72  CD2       36.3290   35.1570   15.6780 C.ar  124  HIS124      0.1154
     73  CE1       35.8160   35.3480   17.8020 C.ar  124  HIS124      0.1986
     74  NE2       35.3980   35.6150   16.5780 N.ar  124  HIS124     -0.2212
     75  N         39.4880   42.8990   16.3450 N.3   146  LEU146     -0.1245
     76  CA        38.6860   42.4540   17.4780 C.3   146  LEU146      0.1561
     77  C         39.3930   42.7530   18.8050 C.2   146  LEU146      0.2260
     78  O         38.9200   43.5580   19.6160 O.2   146  LEU146     -0.2867
     79  CB        38.4180   40.9510   17.3470 C.3   146  LEU146      0.0270
     80  CG        37.0580   40.4050   17.7980 C.3   146  LEU146      0.0019
     81  CD1       35.9410   41.0990   17.0270 C.3   146  LEU146      0.0001
     82  CD2       37.0070   38.9060   17.5630 C.3   146  LEU146      0.0001
     83  N         43.8170   41.3540   27.5900 N.3   148  TRP148     -0.1241
     84  CA        43.9380   40.0860   28.3180 C.3   148  TRP148      0.1605
     85  C         45.3300   39.5050   28.0960 C.2   148  TRP148      0.2264
     86  O         45.8580   39.5690   26.9870 O.2   148  TRP148     -0.2867
     87  CB        42.9060   39.0550   27.8450 C.3   148  TRP148      0.0550
     88  CG        41.4910   39.3910   28.1820 C.ar  148  TRP148      0.0003
     89  CD1       40.5650   39.9670   27.3590 C.ar  148  TRP148      0.0946
     90  CD2       40.8370   39.1860   29.4430 C.ar  148  TRP148      0.0152
     91  NE1       39.3750   40.1320   28.0300 N.ar  148  TRP148     -0.2442
     92  CE2       39.5130   39.6600   29.3090 C.ar  148  TRP148      0.0810
     93  CE3       41.2430   38.6470   30.6740 C.ar  148  TRP148      0.0012
     94  CZ2       38.5870   39.6120   30.3620 C.ar  148  TRP148      0.0191
     95  CZ3       40.3220   38.6010   31.7220 C.ar  148  TRP148      0.0001
     96  CH2       39.0090   39.0810   31.5580 C.ar  148  TRP148      0.0015
@<TRIPOS>BOND
     1    65    66    1
     2    68    67    2
     3    55    56    2
     4    55    54    1
     5    67    66    1
     6    66    69    1
     7    53    54    1
     8    54    57    1
     9    72    70   ar
    10    72    74   ar
    11    69    70    1
    12    47    48    2
    13    47    46    1
    14    75    76    1
    15    70    71   ar
    16    57    58    1
    17    74    73   ar
    18    60    58   ar
    19    60    62   ar
    20    46    45    1
    21    46    49    1
    22    58    59   ar
    23    62    63   ar
    24    81    80    1
    25    59    61   ar
    26    79    76    1
    27    79    80    1
    28    63    61   ar
    29    63    64    1
    30    76    77    1
    31    52    50    1
    32    82    80    1
    33    49    50    1
    34    71    73   ar
    35    50    51    1
    36     1     2    1
    37    77    78    2
    38     6     5    1
    39    44    42    1
    40     4     3    2
    41     7     5    1
    42    40    39    2
    43     2     5    1
    44     2     3    1
    45    42    41    1
    46    41    43    1
    47    41    38    1
    48    39    38    1
    49    38    37    1
    50    12    13    1
    51    12     9    1
    52    37    25   am
    53     8     9    1
    54    13    15   ar
    55    13    14   ar
    56     9    10    1
    57    26    25    2
    58    25    24    1
    59    11    10    2
    60    10    16   am
    61    24    27    1
    62    24    23    1
    63    27    28    1
    64    23    18   am
    65    16    22    1
    66    16    17    1
    67    33    35   ar
    68    33    30   ar
    69    18    17    1
    70    18    19    2
    71    22    21    1
    72    35    36   ar
    73    28    30   ar
    74    28    29   ar
    75    17    20    1
    76    30    32   ar
    77    86    85    2
    78    89    91   ar
    79    89    88   ar
    80    83    84    1
    81    29    31   ar
    82    36    34   ar
    83    21    20    1
    84    87    88    1
    85    87    84    1
    86    32    34   ar
    87    32    31   ar
    88    91    92   ar
    89    85    84    1
    90    88    90   ar
    91    92    90   ar
    92    92    94   ar
    93    90    93   ar
    94    94    96   ar
    95    93    95   ar
    96    96    95   ar
