@<TRIPOS>MOLECULE
tmp/3bj8C00.pdb
 90 88 0 0 0
SMALL
GASTEIGER

@<TRIPOS>ATOM
      1  N         29.5180   36.0380   35.7340 N.3    22  LEU22      -0.1245
      2  CA        30.8790   36.3650   35.3410 C.3    22  LEU22       0.1561
      3  C         30.8230   37.6410   34.5080 C.2    22  LEU22       0.2260
      4  O         31.7440   38.4600   34.5150 O.2    22  LEU22      -0.2867
      5  CB        31.4700   35.2410   34.4850 C.3    22  LEU22       0.0270
      6  CG        32.5320   34.3240   35.0920 C.3    22  LEU22       0.0019
      7  CD1       32.9260   33.2690   34.0870 C.3    22  LEU22       0.0001
      8  CD2       33.7430   35.1460   35.5050 C.3    22  LEU22       0.0001
      9  N         41.6010   26.5470   29.0470 N.3    84  LEU84      -0.1231
     10  CA        40.6030   26.9180   30.0340 C.3    84  LEU84       0.1693
     11  C         39.9390   28.2250   29.5750 C.2    84  LEU84       0.2592
     12  O         40.5530   29.2940   29.6340 O.2    84  LEU84      -0.2718
     13  CB        41.2800   27.1000   31.4020 C.3    84  LEU84       0.0284
     14  CG        40.3820   27.4530   32.5940 C.3    84  LEU84       0.0019
     15  CD1       39.4550   26.2810   32.9150 C.3    84  LEU84       0.0001
     16  CD2       41.2510   27.7990   33.7970 C.3    84  LEU84       0.0001
     17  N         38.6940   28.1280   29.1070 N.am   85  GLU85      -0.1966
     18  CA        37.9490   29.2900   28.6220 C.3    85  GLU85       0.1733
     19  C         37.4430   30.1540   29.7710 C.2    85  GLU85       0.2616
     20  O         37.5490   31.3690   29.7150 O.2    85  GLU85      -0.2715
     21  CB        36.7860   28.8330   27.7260 C.3    85  GLU85       0.0429
     22  CG        35.9260   29.9560   27.1410 C.3    85  GLU85       0.1163
     23  CD        36.7130   31.0160   26.3760 C.2    85  GLU85       0.3649
     24  OE1       37.6000   30.6560   25.5740 O.co2  85  GLU85      -0.2457
     25  OE2       36.4300   32.2200   26.5660 O.co2  85  GLU85      -0.2457
     26  N         36.8760   29.5390   30.8050 N.am   86  ASP86      -0.1957
     27  CA        36.4260   30.3030   31.9640 C.3    86  ASP86       0.1840
     28  C         36.3260   29.4960   33.2430 C.2    86  ASP86       0.2622
     29  O         36.0230   28.2920   33.2320 O.2    86  ASP86      -0.2715
     30  CB        35.1060   31.0230   31.7000 C.3    86  ASP86       0.1450
     31  CG        35.2140   32.5160   31.9610 C.2    86  ASP86       0.3671
     32  OD1       35.9120   32.9090   32.9240 O.co2  86  ASP86      -0.2456
     33  OD2       34.6110   33.2980   31.2140 O.co2  86  ASP86      -0.2456
     34  N         36.5780   30.1870   34.3510 N.am   87  PHE87      -0.1974
     35  CA        36.5950   29.5800   35.6700 C.3    87  PHE87       0.1639
     36  C         35.9820   30.5670   36.6540 C.2    87  PHE87       0.2290
     37  O         36.4160   31.7160   36.7370 O.2    87  PHE87      -0.2864
     38  CB        38.0560   29.2910   36.0390 C.3    87  PHE87       0.0560
     39  CG        38.2470   28.6140   37.3640 C.ar   87  PHE87      -0.0200
     40  CD1       39.5140   28.5290   37.9180 C.ar   87  PHE87      -0.0042
     41  CD2       37.1790   28.0380   38.0430 C.ar   87  PHE87      -0.0042
     42  CE1       39.7260   27.8800   39.1310 C.ar   87  PHE87      -0.0003
     43  CE2       37.3780   27.3850   39.2570 C.ar   87  PHE87      -0.0003
     44  CZ        38.6600   27.3060   39.8020 C.ar   87  PHE87      -0.0000
     45  N         45.2640   29.7880   29.4050 N.3   120  PHE120     -0.1227
     46  CA        44.1430   30.6140   29.8210 C.3   120  PHE120      0.1736
     47  C         44.4920   32.0960   29.7890 C.2   120  PHE120      0.2595
     48  O         45.6620   32.4740   29.6990 O.2   120  PHE120     -0.2718
     49  CB        43.6480   30.2180   31.2270 C.3   120  PHE120      0.0547
     50  CG        44.7320   30.1500   32.2790 C.ar  120  PHE120     -0.0202
     51  CD1       45.4810   28.9910   32.4540 C.ar  120  PHE120     -0.0042
     52  CD2       44.9890   31.2410   33.1050 C.ar  120  PHE120     -0.0042
     53  CE1       46.4700   28.9210   33.4360 C.ar  120  PHE120     -0.0003
     54  CE2       45.9780   31.1780   34.0900 C.ar  120  PHE120     -0.0003
     55  CZ        46.7170   30.0170   34.2540 C.ar  120  PHE120     -0.0000
     56  N         43.4640   32.9340   29.8570 N.am  121  LEU121     -0.1966
     57  CA        43.6410   34.3810   29.8240 C.3   121  LEU121      0.1728
     58  C         43.3170   34.9880   31.1810 C.2   121  LEU121      0.2616
     59  O         42.3730   34.5640   31.8410 O.2   121  LEU121     -0.2715
     60  CB        42.7090   35.0000   28.7800 C.3   121  LEU121      0.0311
     61  CG        42.8640   34.6200   27.3070 C.3   121  LEU121      0.0022
     62  CD1       41.6760   35.1600   26.5220 C.3   121  LEU121      0.0001
     63  CD2       44.1690   35.1740   26.7530 C.3   121  LEU121      0.0001
     64  N         44.1020   35.9780   31.5920 N.am  122  VAL122     -0.1977
     65  CA        43.8830   36.6750   32.8560 C.3   122  VAL122      0.1596
     66  C         43.9720   38.1690   32.5450 C.2   122  VAL122      0.2287
     67  O         44.8230   38.5870   31.7600 O.2   122  VAL122     -0.2864
     68  CB        44.9610   36.3110   33.8930 C.3   122  VAL122      0.0276
     69  CG1       44.6170   36.9310   35.2400 C.3   122  VAL122      0.0022
     70  CG2       45.0800   34.8020   34.0150 C.3   122  VAL122      0.0022
     71  N         47.7250   32.4960   40.0830 N.3   133  TYR133     -0.1241
     72  CA        48.1910   31.5140   39.1160 C.3   133  TYR133      0.1605
     73  C         49.7020   31.3190   39.1210 C.2   133  TYR133      0.2264
     74  O         50.1780   30.1960   39.0010 O.2   133  TYR133     -0.2867
     75  CB        47.6880   31.8890   37.7200 C.3   133  TYR133      0.0534
     76  CG        46.2160   31.5780   37.5430 C.ar  133  TYR133     -0.0201
     77  CD1       45.7660   30.2550   37.5260 C.ar  133  TYR133     -0.0009
     78  CD2       45.2670   32.6000   37.4240 C.ar  133  TYR133     -0.0009
     79  CE1       44.4160   29.9560   37.3960 C.ar  133  TYR133      0.0417
     80  CE2       43.9130   32.3130   37.2920 C.ar  133  TYR133      0.0417
     81  CZ        43.4920   30.9860   37.2800 C.ar  133  TYR133      0.1957
     82  OH        42.1560   30.6850   37.1510 O.3   133  TYR133     -0.2866
     83  N         44.0770   39.8590   17.0700 N.3   145  LEU145     -0.1245
     84  CA        42.9730   38.9340   16.8350 C.3   145  LEU145      0.1561
     85  C         41.9930   39.5120   15.8110 C.2   145  LEU145      0.2260
     86  O         41.4640   40.6040   16.0070 O.2   145  LEU145     -0.2867
     87  CB        42.2350   38.6520   18.1500 C.3   145  LEU145      0.0270
     88  CG        41.0160   37.7280   18.0360 C.3   145  LEU145      0.0019
     89  CD1       41.4370   36.3900   17.4440 C.3   145  LEU145      0.0001
     90  CD2       40.3840   37.5260   19.4020 C.3   145  LEU145      0.0001
@<TRIPOS>BOND
     1    85    86    2
     2    85    84    1
     3    84    83    1
     4    84    87    1
     5    89    88    1
     6    88    87    1
     7    88    90    1
     8    24    23   ar
     9    23    25   ar
    10    23    22    1
    11    62    61    1
    12    63    61    1
    13    22    21    1
    14    61    60    1
    15    21    18    1
    16    18    17    1
    17    18    19    1
    18    60    57    1
    19     9    10    1
    20    17    11   am
    21    45    46    1
    22    11    12    2
    23    11    10    1
    24    48    47    2
    25    20    19    2
    26    19    26   am
    27    47    46    1
    28    47    56   am
    29    46    49    1
    30    57    56    1
    31    57    58    1
    32    10    13    1
    33    26    27    1
    34    58    64   am
    35    58    59    2
    36    33    31   ar
    37    49    50    1
    38    13    14    1
    39    64    65    1
    40    30    31    1
    41    30    27    1
    42    67    66    2
    43    31    32   ar
    44    27    28    1
    45    50    51   ar
    46    50    52   ar
    47    51    53   ar
    48    66    65    1
    49    14    15    1
    50    14    16    1
    51    65    68    1
    52    52    54   ar
    53    29    28    2
    54    28    34   am
    55    53    55   ar
    56    68    70    1
    57    68    69    1
    58     7     6    1
    59    54    55   ar
    60    34    35    1
    61     5     6    1
    62     5     2    1
    63     3     4    2
    64     3     2    1
    65     6     8    1
    66     2     1    1
    67    35    38    1
    68    35    36    1
    69    38    39    1
    70    36    37    2
    71    82    81    1
    72    81    80   ar
    73    81    79   ar
    74    80    78   ar
    75    39    40   ar
    76    39    41   ar
    77    79    77   ar
    78    78    76   ar
    79    77    76   ar
    80    76    75    1
    81    75    72    1
    82    40    42   ar
    83    41    43   ar
    84    74    73    2
    85    72    73    1
    86    72    71    1
    87    42    44   ar
    88    43    44   ar
