@<TRIPOS>MOLECULE
tmp/3bjcA00.pdb
 170 162 0 0 0
SMALL
GASTEIGER

@<TRIPOS>ATOM
      1  N         51.8910   12.8140   54.7870 N.3    78  TYR78      -0.1227
      2  CA        50.6120   13.4260   55.1410 C.3    78  TYR78       0.1736
      3  C         49.7160   12.6370   56.0920 C.2    78  TYR78       0.2595
      4  O         49.2270   13.1880   57.0740 O.2    78  TYR78      -0.2718
      5  CB        49.8060   13.7710   53.8780 C.3    78  TYR78       0.0548
      6  CG        48.5170   14.4950   54.2060 C.ar   78  TYR78      -0.0200
      7  CD1       48.5430   15.7310   54.8480 C.ar   78  TYR78      -0.0009
      8  CD2       47.2760   13.9190   53.9330 C.ar   78  TYR78      -0.0009
      9  CE1       47.3710   16.3740   55.2180 C.ar   78  TYR78       0.0417
     10  CE2       46.0950   14.5560   54.2960 C.ar   78  TYR78       0.0417
     11  CZ        46.1520   15.7820   54.9430 C.ar   78  TYR78       0.1957
     12  OH        45.0010   16.4120   55.3480 O.3    78  TYR78      -0.2866
     13  N         49.4770   11.3610   55.8010 N.am   79  HIS79      -0.1975
     14  CA        48.6210   10.5510   56.6660 C.3    79  HIS79       0.1656
     15  C         49.3500   10.1070   57.9260 C.2    79  HIS79       0.2291
     16  O         49.7310    8.9420   58.0750 O.2    79  HIS79      -0.2864
     17  CB        48.0730    9.3370   55.9000 C.3    79  HIS79       0.0771
     18  CG        47.1070    9.7020   54.8140 C.ar   79  HIS79       0.0820
     19  ND1       47.4810    9.8340   53.4930 N.ar   79  HIS79      -0.2267
     20  CD2       45.7890   10.0100   54.8640 C.ar   79  HIS79       0.1154
     21  CE1       46.4360   10.2080   52.7770 C.ar   79  HIS79       0.1986
     22  NE2       45.3960   10.3230   53.5850 N.ar   79  HIS79      -0.2212
     23  N         49.6700    6.4660   50.7410 N.3   126  VAL126     -0.1245
     24  CA        48.8460    6.0470   49.6120 C.3   126  VAL126      0.1561
     25  C         49.5370    5.0640   48.6650 C.2   126  VAL126      0.2260
     26  O         48.8710    4.2850   47.9880 O.2   126  VAL126     -0.2867
     27  CB        48.3480    7.2680   48.8030 C.3   126  VAL126      0.0252
     28  CG1       47.5460    8.1890   49.7080 C.3   126  VAL126      0.0019
     29  CG2       49.5270    8.0100   48.1800 C.3   126  VAL126      0.0019
     30  N         37.2870    7.2140   50.6930 N.3   191  LEU191     -0.1245
     31  CA        36.7350    8.1700   49.7490 C.3   191  LEU191      0.1561
     32  C         35.7890    7.5220   48.7410 C.2   191  LEU191      0.2260
     33  O         34.8900    8.1820   48.2240 O.2   191  LEU191     -0.2867
     34  CB        37.8760    8.9100   49.0420 C.3   191  LEU191      0.0270
     35  CG        37.6200   10.3620   48.6250 C.3   191  LEU191      0.0019
     36  CD1       37.0240   11.1680   49.7790 C.3   191  LEU191      0.0001
     37  CD2       38.9360   10.9780   48.1770 C.3   191  LEU191      0.0001
     38  N         37.8810   15.1960   57.4200 N.3   230  ASP230     -0.1225
     39  CA        39.0510   14.4990   56.8840 C.3   230  ASP230      0.1805
     40  C         39.7160   15.2580   55.7310 C.2   230  ASP230      0.2597
     41  O         40.9230   15.1550   55.5320 O.2   230  ASP230     -0.2718
     42  CB        38.6230   13.0880   56.4450 C.3   230  ASP230      0.1424
     43  CG        39.8010   12.1530   56.1710 C.2   230  ASP230      0.3668
     44  OD1       40.8800   12.2920   56.7840 O.co2 230  ASP230     -0.2456
     45  OD2       39.6250   11.2390   55.3430 O.co2 230  ASP230     -0.2456
     46  N         38.9350   16.0330   54.9850 N.am  231  LEU231     -0.1979
     47  CA        39.4730   16.7970   53.8630 C.3   231  LEU231      0.1596
     48  C         39.6660   18.2800   54.1880 C.2   231  LEU231      0.2287
     49  O         40.1130   19.0400   53.3330 O.2   231  LEU231     -0.2864
     50  CB        38.5290   16.6880   52.6540 C.3   231  LEU231      0.0297
     51  CG        38.2020   15.2760   52.1630 C.3   231  LEU231      0.0022
     52  CD1       37.2960   15.3420   50.9390 C.3   231  LEU231      0.0001
     53  CD2       39.4990   14.5460   51.8400 C.3   231  LEU231      0.0001
     54  N         41.7980   20.2180   55.2720 N.3   233  ALA233     -0.1231
     55  CA        43.0420   20.9450   55.0160 C.3   233  ALA233      0.1694
     56  C         42.8140   21.8370   53.8030 C.2   233  ALA233      0.2591
     57  O         43.4550   22.8840   53.6460 O.2   233  ALA233     -0.2718
     58  CB        44.1750   19.9760   54.7170 C.3   233  ALA233      0.0304
     59  N         41.8930   21.4040   52.9470 N.am  234  ILE234     -0.1980
     60  CA        41.5690   22.1210   51.7150 C.3   234  ILE234      0.1595
     61  C         40.8300   23.4410   51.9950 C.2   234  ILE234      0.2287
     62  O         40.7020   24.2900   51.1140 O.2   234  ILE234     -0.2864
     63  CB        40.7070   21.2090   50.7710 C.3   234  ILE234      0.0276
     64  CG1       40.8820   21.6280   49.3100 C.3   234  ILE234      0.0022
     65  CG2       39.2340   21.2730   51.1710 C.3   234  ILE234      0.0022
     66  CD1       42.3020   21.4170   48.7660 C.3   234  ILE234      0.0001
     67  N         47.2010   26.1290   53.6520 N.3   241  GLN241     -0.1245
     68  CA        46.8050   25.1640   52.6150 C.3   241  GLN241      0.1566
     69  C         47.9740   24.8450   51.6760 C.2   241  GLN241      0.2260
     70  O         48.1320   23.7040   51.2290 O.2   241  GLN241     -0.2867
     71  CB        45.6100   25.7020   51.8150 C.3   241  GLN241      0.0367
     72  CG        45.4850   25.1840   50.3640 C.3   241  GLN241      0.0905
     73  CD        45.4110   23.6720   50.2520 C.2   241  GLN241      0.2608
     74  OE1       45.6040   23.1170   49.1730 O.2   241  GLN241     -0.2717
     75  NE2       45.1290   22.9970   51.3630 N.am  241  GLN241     -0.0878
     76  N         50.0850   22.3320   53.4940 N.3   244  ILE244     -0.1231
     77  CA        49.4250   21.0320   53.5590 C.3   244  ILE244      0.1692
     78  C         49.4370   20.3570   52.1910 C.2   244  ILE244      0.2591
     79  O         49.6170   19.1480   52.0980 O.2   244  ILE244     -0.2718
     80  CB        47.9680   21.1650   54.0660 C.3   244  ILE244      0.0266
     81  CG1       47.9550   21.6440   55.5240 C.3   244  ILE244      0.0019
     82  CG2       47.2650   19.8250   53.9670 C.3   244  ILE244      0.0020
     83  CD1       48.6540   20.6930   56.4940 C.3   244  ILE244      0.0001
     84  N         49.2650   21.1400   51.1300 N.am  245  ALA245     -0.1980
     85  CA        49.2730   20.5990   49.7740 C.3   245  ALA245      0.1597
     86  C         50.6560   20.0380   49.4450 C.2   245  ALA245      0.2287
     87  O         50.7880   19.0770   48.6860 O.2   245  ALA245     -0.2864
     88  CB        48.8930   21.6860   48.7650 C.3   245  ALA245      0.0319
     89  N         50.8370   16.5600   50.9670 N.3   248  VAL248     -0.1231
     90  CA        50.0650   15.6090   50.1730 C.3   248  VAL248      0.1692
     91  C         50.8380   15.2590   48.9080 C.2   248  VAL248      0.2591
     92  O         50.9700   14.0860   48.5570 O.2   248  VAL248     -0.2718
     93  CB        48.6830   16.1860   49.7920 C.3   248  VAL248      0.0266
     94  CG1       47.9830   15.2720   48.7860 C.3   248  VAL248      0.0020
     95  CG2       47.8360   16.3390   51.0420 C.3   248  VAL248      0.0020
     96  N         51.3510   16.2790   48.2250 N.am  249  ALA249     -0.1980
     97  CA        52.1260   16.0570   47.0080 C.3   249  ALA249      0.1597
     98  C         53.3150   15.1440   47.3100 C.2   249  ALA249      0.2287
     99  O         53.6110   14.2270   46.5450 O.2   249  ALA249     -0.2864
    100  CB        52.6170   17.3910   46.4400 C.3   249  ALA249      0.0319
    101  N         52.0800   11.6000   47.8010 N.3   252  PHE252     -0.1227
    102  CA        51.5840   11.1230   46.5160 C.3   252  PHE252      0.1736
    103  C         52.6570   10.8150   45.4730 C.2   252  PHE252      0.2595
    104  O         52.6310    9.7630   44.8360 O.2   252  PHE252     -0.2718
    105  CB        50.6250   12.1610   45.9180 C.3   252  PHE252      0.0547
    106  CG        49.2100   12.0780   46.4380 C.ar  252  PHE252     -0.0202
    107  CD1       48.9420   11.6800   47.7430 C.ar  252  PHE252     -0.0042
    108  CD2       48.1440   12.4430   45.6220 C.ar  252  PHE252     -0.0042
    109  CE1       47.6360   11.6490   48.2270 C.ar  252  PHE252     -0.0003
    110  CE2       46.8310   12.4140   46.0990 C.ar  252  PHE252     -0.0003
    111  CZ        46.5800   12.0170   47.4000 C.ar  252  PHE252     -0.0000
    112  N         53.6070   11.7260   45.3120 N.am  253  PHE253     -0.1976
    113  CA        54.6290   11.5810   44.2820 C.3   253  PHE253      0.1639
    114  C         56.0400   11.1700   44.6770 C.2   253  PHE253      0.2290
    115  O         56.7220   10.5000   43.9070 O.2   253  PHE253     -0.2864
    116  CB        54.6820   12.8820   43.4820 C.3   253  PHE253      0.0560
    117  CG        53.3330   13.3620   43.0460 C.ar  253  PHE253     -0.0200
    118  CD1       52.5170   12.5550   42.2600 C.ar  253  PHE253     -0.0042
    119  CD2       52.8610   14.6080   43.4440 C.ar  253  PHE253     -0.0042
    120  CE1       51.2490   12.9790   41.8760 C.ar  253  PHE253     -0.0003
    121  CE2       51.5890   15.0420   43.0640 C.ar  253  PHE253     -0.0003
    122  CZ        50.7860   14.2250   42.2800 C.ar  253  PHE253     -0.0000
    123  N         50.4910   20.7520   40.0200 N.3   264  ILE264     -0.1245
    124  CA        49.8040   20.7750   41.3040 C.3   264  ILE264      0.1561
    125  C         48.6340   21.7590   41.3650 C.2   264  ILE264      0.2260
    126  O         47.5530   21.4050   41.8300 O.2   264  ILE264     -0.2867
    127  CB        50.7970   21.0560   42.4600 C.3   264  ILE264      0.0252
    128  CG1       51.7430   19.8590   42.6150 C.3   264  ILE264      0.0019
    129  CG2       50.0440   21.3080   43.7620 C.3   264  ILE264      0.0019
    130  CD1       52.7900   20.0160   43.7130 C.3   264  ILE264      0.0001
    131  N         45.7240   20.3840   39.5800 N.3   267  MET267     -0.1230
    132  CA        45.2910   19.1770   40.2860 C.3   267  MET267      0.1702
    133  C         44.4120   19.5480   41.4840 C.2   267  MET267      0.2592
    134  O         43.3560   18.9510   41.6970 O.2   267  MET267     -0.2718
    135  CB        46.5040   18.3660   40.7690 C.3   267  MET267      0.0401
    136  CG        47.2940   17.6950   39.6450 C.3   267  MET267      0.0596
    137  SD        48.7840   16.8460   40.2220 S.3   267  MET267     -0.1393
    138  CE        48.1510   15.2170   40.5640 C.3   267  MET267      0.0692
    139  N         44.8480   20.5350   42.2630 N.am  268  GLN268     -0.1979
    140  CA        44.0860   20.9640   43.4290 C.3   268  GLN268      0.1601
    141  C         42.7160   21.5150   43.0310 C.2   268  GLN268      0.2287
    142  O         41.7170   21.2590   43.7070 O.2   268  GLN268     -0.2864
    143  CB        44.8580   22.0290   44.2190 C.3   268  GLN268      0.0394
    144  CG        46.0620   21.5030   45.0060 C.3   268  GLN268      0.0908
    145  CD        45.6860   20.4350   46.0200 C.2   268  GLN268      0.2608
    146  OE1       45.5420   19.2650   45.6760 O.2   268  GLN268     -0.2717
    147  NE2       45.5160   20.8410   47.2790 N.am  268  GLN268     -0.0878
    148  N         40.9780   20.6980   40.4080 N.3   270  GLY270     -0.1210
    149  CA        40.1570   19.5590   40.0290 C.3   270  GLY270      0.1956
    150  C         39.6400   18.8090   41.2450 C.2   270  GLY270      0.2611
    151  O         38.4950   18.3570   41.2700 O.2   270  GLY270     -0.2717
    152  N         40.4930   18.6720   42.2570 N.am  271  PHE271     -0.1976
    153  CA        40.1180   17.9900   43.4860 C.3   271  PHE271      0.1639
    154  C         39.0260   18.7820   44.2020 C.2   271  PHE271      0.2290
    155  O         38.0260   18.2170   44.6490 O.2   271  PHE271     -0.2864
    156  CB        41.3390   17.8490   44.3950 C.3   271  PHE271      0.0560
    157  CG        41.0220   17.3110   45.7610 C.ar  271  PHE271     -0.0200
    158  CD1       40.5430   16.0130   45.9190 C.ar  271  PHE271     -0.0042
    159  CD2       41.2230   18.0960   46.8950 C.ar  271  PHE271     -0.0042
    160  CE1       40.2720   15.5020   47.1860 C.ar  271  PHE271     -0.0003
    161  CE2       40.9550   17.5950   48.1680 C.ar  271  PHE271     -0.0003
    162  CZ        40.4780   16.2930   48.3120 C.ar  271  PHE271     -0.0000
    163  N         35.5220   16.8260   44.4000 N.3   275  ILE275     -0.1245
    164  CA        35.2740   16.2480   45.7160 C.3   275  ILE275      0.1561
    165  C         34.8080   17.1620   46.8440 C.2   275  ILE275      0.2260
    166  O         33.8760   16.8260   47.5810 O.2   275  ILE275     -0.2867
    167  CB        36.5560   15.5260   46.2170 C.3   275  ILE275      0.0252
    168  CG1       37.0760   14.5740   45.1350 C.3   275  ILE275      0.0019
    169  CG2       36.2760   14.7770   47.5130 C.3   275  ILE275      0.0019
    170  CD1       36.0960   13.4890   44.7450 C.3   275  ILE275      0.0001
@<TRIPOS>BOND
     1   131   132    1
     2   136   137    1
     3   136   135    1
     4   123   124    1
     5   149   148    1
     6   149   150    1
     7   137   138    1
     8   132   135    1
     9   132   133    1
    10   150   151    2
    11   150   152   am
    12   124   125    1
    13   124   127    1
    14   125   126    2
    15   133   134    2
    16   133   139   am
    17   120   118   ar
    18   120   122   ar
    19   152   153    1
    20   118   117   ar
    21   139   140    1
    22   122   121   ar
    23   127   128    1
    24   127   129    1
    25   128   130    1
    26   141   140    1
    27   141   142    2
    28   117   119   ar
    29   117   116    1
    30   121   119   ar
    31   140   143    1
    32   116   113    1
    33   153   154    1
    34   153   156    1
    35   115   114    2
    36   154   155    2
    37   143   144    1
    38   113   114    1
    39   113   112    1
    40   156   157    1
    41   163   164    1
    42   170   168    1
    43   104   103    2
    44   144   145    1
    45   168   167    1
    46   112   103   am
    47   103   102    1
    48   108   110   ar
    49   108   106   ar
    50   146   145    2
    51   164   167    1
    52   164   165    1
    53   157   158   ar
    54   157   159   ar
    55   105   106    1
    56   105   102    1
    57   158   160   ar
    58   145   147   am
    59   110   111   ar
    60   167   169    1
    61   106   107   ar
    62   100    97    1
    63   102   101    1
    64    99    98    2
    65   165   166    2
    66   159   161   ar
    67    97    98    1
    68    97    96    1
    69   160   162   ar
    70   111   109   ar
    71   107   109   ar
    72    26    25    2
    73   161   162   ar
    74    37    35    1
    75    29    27    1
    76    33    32    2
    77    96    91   am
    78    92    91    2
    79    35    34    1
    80    35    36    1
    81    25    24    1
    82    87    86    2
    83    32    31    1
    84    88    85    1
    85    66    64    1
    86    94    93    1
    87    27    24    1
    88    27    28    1
    89    91    90    1
    90    34    31    1
    91    74    73    2
    92    64    63    1
    93    86    85    1
    94    24    23    1
    95    31    30    1
    96    85    84    1
    97    93    90    1
    98    93    95    1
    99    90    89    1
   100    73    72    1
   101    73    75   am
   102    72    71    1
   103    63    65    1
   104    63    60    1
   105    52    51    1
   106    62    61    2
   107    84    78   am
   108    70    69    2
   109    69    68    1
   110    60    61    1
   111    60    59    1
   112    71    68    1
   113    53    51    1
   114    79    78    2
   115    51    50    1
   116    78    77    1
   117    68    67    1
   118    50    47    1
   119    21    19   ar
   120    21    22   ar
   121    59    56   am
   122    49    48    2
   123    19    18   ar
   124    76    77    1
   125    77    80    1
   126    22    20   ar
   127    57    56    2
   128    56    55    1
   129    47    48    1
   130    47    46    1
   131     5     6    1
   132     5     2    1
   133     8     6   ar
   134     8    10   ar
   135    82    80    1
   136    80    81    1
   137     6     7   ar
   138    10    11   ar
   139    58    55    1
   140     1     2    1
   141    18    20   ar
   142    18    17    1
   143     7     9   ar
   144    11     9   ar
   145    11    12    1
   146    46    40   am
   147    55    54    1
   148     2     3    1
   149    45    43   ar
   150    81    83    1
   151    41    40    2
   152    40    39    1
   153    13     3   am
   154    13    14    1
   155    17    14    1
   156     3     4    2
   157    43    42    1
   158    43    44   ar
   159    42    39    1
   160    14    15    1
   161    39    38    1
   162    15    16    2
