@<TRIPOS>MOLECULE
tmp/3bjeA00.pdb
 105 98 0 0 0
SMALL
GASTEIGER

@<TRIPOS>ATOM
      1  N          1.8470   -1.6640   21.1100 N.3    28  GLY28      -0.1210
      2  CA         3.2320   -2.0710   20.9380 C.3    28  GLY28       0.1956
      3  C          3.4040   -3.5690   21.1260 C.2    28  GLY28       0.2611
      4  O          4.1210   -4.2380   20.3650 O.2    28  GLY28      -0.2717
      5  N          2.7790   -4.0840   22.1690 N.am   29  ASP29      -0.1973
      6  CA         2.9400   -5.4530   22.6070 C.3    29  ASP29       0.1709
      7  C          2.0400   -6.3840   21.7940 C.2    29  ASP29       0.2293
      8  O          0.8160   -6.2200   21.8080 O.2    29  ASP29      -0.2864
      9  CB         2.5520   -5.5160   24.0850 C.3    29  ASP29       0.1436
     10  CG         2.7540   -6.8920   24.7050 C.2    29  ASP29       0.3671
     11  OD1        3.1070   -7.8630   24.0000 O.co2  29  ASP29      -0.2456
     12  OD2        2.5240   -7.0060   25.9210 O.co2  29  ASP29      -0.2456
     13  N         -1.1530   -7.7930   23.3270 N.3    32  ARG32      -0.1245
     14  CA        -2.3500   -6.9680   23.5520 C.3    32  ARG32       0.1563
     15  C         -3.3840   -7.0980   22.4230 C.2    32  ARG32       0.2260
     16  O         -4.5290   -6.6630   22.5660 O.2    32  ARG32      -0.2867
     17  CB        -1.9540   -5.4960   23.7370 C.3    32  ARG32       0.0307
     18  CG        -3.0450   -4.6220   24.3880 C.3    32  ARG32       0.0489
     19  CD        -2.5510   -3.2080   24.7670 C.3    32  ARG32       0.2205
     20  NE        -1.3110   -3.2590   25.5440 N.pl3  32  ARG32      -0.0865
     21  CZ        -0.2160   -2.5340   25.3100 C.cat  32  ARG32       0.5346
     22  NH1       -0.1650   -1.6290   24.3370 N.pl3  32  ARG32       0.1354
     23  NH2        0.8530   -2.7210   26.0710 N.pl3  32  ARG32       0.1354
     24  N          8.1350   -2.3870   19.3170 N.3    73  MET73      -0.1245
     25  CA         8.5950   -1.1970   20.0160 C.3    73  MET73       0.1570
     26  C          9.2760   -0.2200   19.0930 C.2    73  MET73       0.2261
     27  O         10.1330   -0.6160   18.3040 O.2    73  MET73      -0.2867
     28  CB         9.5410   -1.6000   21.1420 C.3    73  MET73       0.0387
     29  CG         8.9100   -2.5540   22.1030 C.3    73  MET73       0.0595
     30  SD         9.9160   -2.9150   23.5420 S.3    73  MET73      -0.1393
     31  CE        11.1120   -4.0340   22.8240 C.3    73  MET73       0.0692
     32  N         -3.0060    4.9760   18.8590 N.3   123  ARG123     -0.1245
     33  CA        -2.1410    4.1400   19.6750 C.3   123  ARG123      0.1563
     34  C         -2.7180    4.0200   21.0700 C.2   123  ARG123      0.2260
     35  O         -3.0780    5.0200   21.6690 O.2   123  ARG123     -0.2867
     36  CB        -0.7440    4.7460   19.7420 C.3   123  ARG123      0.0307
     37  CG         0.1180    4.1820   20.8550 C.3   123  ARG123      0.0489
     38  CD         1.5750    4.5400   20.6690 C.3   123  ARG123      0.2205
     39  NE         2.3280    4.4310   21.9280 N.pl3 123  ARG123     -0.0865
     40  CZ         2.5570    3.2910   22.5830 C.cat 123  ARG123      0.5346
     41  NH1        3.2270    3.3330   23.7220 N.pl3 123  ARG123      0.1354
     42  NH2        2.1270    2.1070   22.1170 N.pl3 123  ARG123      0.1354
     43  N         -1.2020    2.5040   24.3930 N.3   125  GLY125     -0.1210
     44  CA         0.0670    2.0040   24.8510 C.3   125  GLY125      0.1956
     45  C          0.2790    2.0830   26.3380 C.2   125  GLY125      0.2613
     46  O         -0.6660    2.2620   27.1120 O.2   125  GLY125     -0.2717
     47  N          1.5300    1.8840   26.7380 N.am  126  THR126     -0.1938
     48  CA         1.9530    2.1060   28.1140 C.3   126  THR126      0.2028
     49  C          3.0260    3.1700   28.0740 C.2   126  THR126      0.2642
     50  O          3.6150    3.4190   27.0370 O.2   126  THR126     -0.2714
     51  CB         2.4970    0.8260   28.7850 C.3   126  THR126      0.1808
     52  OG1        3.6460    0.3360   28.0740 O.3   126  THR126     -0.2208
     53  CG2        1.3890   -0.2480   28.8760 C.3   126  THR126      0.0379
     54  N          3.2700    3.8180   29.1990 N.am  127  CYS127     -0.1967
     55  CA         4.2550    4.9000   29.1960 C.3   127  CYS127      0.1712
     56  C          4.7720    5.2210   30.5780 C.2   127  CYS127      0.2296
     57  O          4.2760    4.6970   31.5940 O.2   127  CYS127     -0.2864
     58  CB         3.6150    6.1590   28.6020 C.3   127  CYS127      0.0983
     59  SG         2.2870    6.8360   29.6700 S.3   127  CYS127     -0.0798
     60  N         14.7810    2.9730   25.7860 N.3   228  PHE228     -0.1241
     61  CA        14.0650    2.8840   27.0520 C.3   228  PHE228      0.1605
     62  C         14.8620    3.3670   28.2720 C.2   228  PHE228      0.2264
     63  O         14.2870    3.8120   29.2550 O.2   228  PHE228     -0.2867
     64  CB        13.6700    1.4290   27.2820 C.3   228  PHE228      0.0534
     65  CG        12.7660    1.2180   28.4570 C.ar  228  PHE228     -0.0203
     66  CD1       11.3970    1.3370   28.3050 C.ar  228  PHE228     -0.0042
     67  CD2       13.2610    0.8830   29.6950 C.ar  228  PHE228     -0.0042
     68  CE1       10.5370    1.1320   29.3640 C.ar  228  PHE228     -0.0003
     69  CE2       12.4100    0.6520   30.7640 C.ar  228  PHE228     -0.0003
     70  CZ        11.0460    0.7850   30.5950 C.ar  228  PHE228     -0.0000
     71  N         15.7690    7.4750   27.8330 N.3   232  GLN232     -0.1245
     72  CA        14.7290    8.0910   28.6640 C.3   232  GLN232      0.1566
     73  C         15.2930    8.6260   29.9950 C.2   232  GLN232      0.2260
     74  O         14.5500    8.8640   30.9160 O.2   232  GLN232     -0.2867
     75  CB        13.5560    7.1280   28.8860 C.3   232  GLN232      0.0367
     76  CG        12.8970    6.6640   27.5950 C.3   232  GLN232      0.0905
     77  CD        11.6420    5.8230   27.7830 C.2   232  GLN232      0.2608
     78  OE1       10.9620    5.9130   28.8330 O.2   232  GLN232     -0.2717
     79  NE2       11.2970    5.0400   26.7520 N.am  232  GLN232     -0.0878
     80  N          7.3260    7.8270   26.1100 N.3   270  GLU270     -0.1231
     81  CA         7.2040    6.4800   25.5530 C.3   270  GLU270      0.1699
     82  C          8.0220    6.3960   24.2440 C.2   270  GLU270      0.2592
     83  O          8.9330    7.2330   24.0150 O.2   270  GLU270     -0.2718
     84  CB         5.7270    6.0640   25.3980 C.3   270  GLU270      0.0402
     85  CG         4.7990    7.0980   24.7410 C.3   270  GLU270      0.1161
     86  CD         5.0960    7.2480   23.2720 C.2   270  GLU270      0.3649
     87  OE1        4.5430    6.4420   22.4910 O.co2 270  GLU270     -0.2457
     88  OE2        5.8960    8.1520   22.9310 O.co2 270  GLU270     -0.2457
     89  N          7.7340    5.4210   23.3830 N.am  271  MET271     -0.1965
     90  CA         8.6450    5.1320   22.2610 C.3   271  MET271      0.1736
     91  C          8.0620    5.1690   20.8370 C.2   271  MET271      0.2616
     92  O          8.7810    4.8580   19.8940 O.2   271  MET271     -0.2715
     93  CB         9.3180    3.7740   22.4950 C.3   271  MET271      0.0427
     94  CG        10.2050    3.7600   23.7330 C.3   271  MET271      0.0599
     95  SD        11.0040    2.1860   24.0920 S.3   271  MET271     -0.1393
     96  CE        12.0680    2.0040   22.6200 C.3   271  MET271      0.0692
     97  N          6.7920    5.5590   20.6680 N.am  272  GLU272     -0.1977
     98  CA         6.1430    5.5260   19.3390 C.3   272  GLU272      0.1602
     99  C          5.4130    6.7820   18.8640 C.2   272  GLU272      0.2287
    100  O          5.2490    6.9760   17.6610 O.2   272  GLU272     -0.2864
    101  CB         5.1510    4.3490   19.2880 C.3   272  GLU272      0.0415
    102  CG         5.8260    2.9710   19.3330 C.3   272  GLU272      0.1163
    103  CD         5.9200    2.3630   20.7310 C.2   272  GLU272      0.3649
    104  OE1        5.0370    2.6030   21.5670 O.co2 272  GLU272     -0.2457
    105  OE2        6.8970    1.6060   21.0190 O.co2 272  GLU272     -0.2457
@<TRIPOS>BOND
     1   100    99    2
     2    27    26    2
     3    32    33    1
     4    99    98    1
     5    26    25    1
     6   101   102    1
     7   101    98    1
     8    24    25    1
     9   102   103    1
    10    98    97    1
    11    33    36    1
    12    33    34    1
    13    36    37    1
    14    92    91    2
    15    25    28    1
    16     4     3    2
    17    97    91   am
    18    38    37    1
    19    38    39    1
    20   103   105   ar
    21   103   104   ar
    22    91    90    1
    23     2     1    1
    24     2     3    1
    25    34    35    2
    26     3     5   am
    27    28    29    1
    28     7     8    2
    29     7     6    1
    30    39    40    2
    31    29    30    1
    32    42    40    1
    33     5     6    1
    34    90    93    1
    35    90    89    1
    36    15    16    2
    37    15    14    1
    38    87    86   ar
    39    93    94    1
    40    40    41    1
    41     6     9    1
    42    96    95    1
    43    31    30    1
    44    88    86   ar
    45    86    85    1
    46    13    14    1
    47    89    82   am
    48    14    17    1
    49    94    95    1
    50    17    18    1
    51    11    10   ar
    52    83    82    2
    53     9    10    1
    54    82    81    1
    55    22    21    1
    56    18    19    1
    57    43    44    1
    58    10    12   ar
    59    85    84    1
    60    19    20    1
    61    44    45    1
    62    21    20    2
    63    21    23    1
    64    84    81    1
    65    81    80    1
    66    60    61    1
    67    45    47   am
    68    45    46    2
    69    47    48    1
    70    79    77   am
    71    50    49    2
    72    61    64    1
    73    61    62    1
    74    64    65    1
    75    76    77    1
    76    76    75    1
    77    77    78    2
    78    71    72    1
    79    49    48    1
    80    49    54   am
    81    52    51    1
    82    48    51    1
    83    62    63    2
    84    66    65   ar
    85    66    68   ar
    86    65    67   ar
    87    58    55    1
    88    58    59    1
    89    72    75    1
    90    72    73    1
    91    51    53    1
    92    55    54    1
    93    55    56    1
    94    68    70   ar
    95    67    69   ar
    96    73    74    2
    97    56    57    2
    98    70    69   ar
