@<TRIPOS>MOLECULE
tmp/3bjeA01.pdb
 105 98 0 0 0
SMALL
GASTEIGER

@<TRIPOS>ATOM
      1  N          1.5300    1.8840   26.7380 N.3   126  THR126     -0.1203
      2  CA         1.9530    2.1060   28.1140 C.3   126  THR126      0.1994
      3  C          3.0260    3.1700   28.0740 C.2   126  THR126      0.2618
      4  O          3.6150    3.4190   27.0370 O.2   126  THR126     -0.2717
      5  CB         2.4970    0.8260   28.7850 C.3   126  THR126      0.1784
      6  OG1        3.6460    0.3360   28.0740 O.3   126  THR126     -0.2211
      7  CG2        1.3890   -0.2480   28.8760 C.3   126  THR126      0.0376
      8  N          3.2700    3.8180   29.1990 N.am  127  CYS127     -0.1955
      9  CA         4.2550    4.9000   29.1960 C.3   127  CYS127      0.1843
     10  C          4.7720    5.2210   30.5780 C.2   127  CYS127      0.2626
     11  O          4.2760    4.6970   31.5940 O.2   127  CYS127     -0.2714
     12  CB         3.6150    6.1590   28.6020 C.3   127  CYS127      0.0997
     13  SG         2.2870    6.8360   29.6700 S.3   127  CYS127     -0.0797
     14  N          5.7880    6.0760   30.6240 N.am  128  GLY128     -0.1954
     15  CA         6.2110    6.7060   31.8690 C.3   128  GLY128      0.1869
     16  C          5.6630    8.1150   31.9510 C.2   128  GLY128      0.2309
     17  O          5.2620    8.6810   30.9250 O.2   128  GLY128     -0.2863
     18  N         14.7810    2.9730   25.7860 N.3   228  PHE228     -0.1241
     19  CA        14.0650    2.8840   27.0520 C.3   228  PHE228      0.1605
     20  C         14.8620    3.3670   28.2720 C.2   228  PHE228      0.2264
     21  O         14.2870    3.8120   29.2550 O.2   228  PHE228     -0.2867
     22  CB        13.6700    1.4290   27.2820 C.3   228  PHE228      0.0534
     23  CG        12.7660    1.2180   28.4570 C.ar  228  PHE228     -0.0203
     24  CD1       11.3970    1.3370   28.3050 C.ar  228  PHE228     -0.0042
     25  CD2       13.2610    0.8830   29.6950 C.ar  228  PHE228     -0.0042
     26  CE1       10.5370    1.1320   29.3640 C.ar  228  PHE228     -0.0003
     27  CE2       12.4100    0.6520   30.7640 C.ar  228  PHE228     -0.0003
     28  CZ        11.0460    0.7850   30.5950 C.ar  228  PHE228     -0.0000
     29  N         15.7690    7.4750   27.8330 N.3   232  GLN232     -0.1245
     30  CA        14.7290    8.0910   28.6640 C.3   232  GLN232      0.1566
     31  C         15.2930    8.6260   29.9950 C.2   232  GLN232      0.2260
     32  O         14.5500    8.8640   30.9160 O.2   232  GLN232     -0.2867
     33  CB        13.5560    7.1280   28.8860 C.3   232  GLN232      0.0367
     34  CG        12.8970    6.6640   27.5950 C.3   232  GLN232      0.0905
     35  CD        11.6420    5.8230   27.7830 C.2   232  GLN232      0.2608
     36  OE1       10.9620    5.9130   28.8330 O.2   232  GLN232     -0.2717
     37  NE2       11.2970    5.0400   26.7520 N.am  232  GLN232     -0.0878
     38  N         17.1780    7.0530   32.1940 N.3   234  ARG234     -0.1245
     39  CA        17.4560    6.0280   33.2020 C.3   234  ARG234      0.1563
     40  C         18.9650    5.8170   33.3340 C.2   234  ARG234      0.2260
     41  O         19.6800    5.7680   32.3340 O.2   234  ARG234     -0.2867
     42  CB        16.7580    4.6990   32.8730 C.3   234  ARG234      0.0307
     43  CG        15.2420    4.7380   32.9920 C.3   234  ARG234      0.0489
     44  CD        14.6020    3.3950   32.6970 C.3   234  ARG234      0.2205
     45  NE        13.2330    3.3770   33.1850 N.pl3 234  ARG234     -0.0865
     46  CZ        12.1630    3.7960   32.5100 C.cat 234  ARG234      0.5346
     47  NH1       12.2500    4.2340   31.2670 N.pl3 234  ARG234      0.1354
     48  NH2       10.9710    3.7670   33.0880 N.pl3 234  ARG234      0.1354
     49  N          6.1610    9.9080   28.6560 N.3   269  ILE269     -0.1231
     50  CA         7.3220    9.5290   27.8450 C.3   269  ILE269      0.1692
     51  C          7.1250    8.0850   27.3940 C.2   269  ILE269      0.2592
     52  O          6.7970    7.2180   28.2160 O.2   269  ILE269     -0.2718
     53  CB         8.6400    9.5850   28.6520 C.3   269  ILE269      0.0266
     54  CG1        8.8690   10.9850   29.2230 C.3   269  ILE269      0.0019
     55  CG2        9.8350    9.1140   27.7930 C.3   269  ILE269      0.0020
     56  CD1        9.9150   11.0260   30.3550 C.3   269  ILE269      0.0001
     57  N          7.3260    7.8270   26.1100 N.am  270  GLU270     -0.1966
     58  CA         7.2040    6.4800   25.5530 C.3   270  GLU270      0.1733
     59  C          8.0220    6.3960   24.2440 C.2   270  GLU270      0.2616
     60  O          8.9330    7.2330   24.0150 O.2   270  GLU270     -0.2715
     61  CB         5.7270    6.0640   25.3980 C.3   270  GLU270      0.0429
     62  CG         4.7990    7.0980   24.7410 C.3   270  GLU270      0.1163
     63  CD         5.0960    7.2480   23.2720 C.2   270  GLU270      0.3649
     64  OE1        4.5430    6.4420   22.4910 O.co2 270  GLU270     -0.2457
     65  OE2        5.8960    8.1520   22.9310 O.co2 270  GLU270     -0.2457
     66  N          7.7340    5.4210   23.3830 N.am  271  MET271     -0.1977
     67  CA         8.6450    5.1320   22.2610 C.3   271  MET271      0.1605
     68  C          8.0620    5.1690   20.8370 C.2   271  MET271      0.2287
     69  O          8.7810    4.8580   19.8940 O.2   271  MET271     -0.2864
     70  CB         9.3180    3.7740   22.4950 C.3   271  MET271      0.0413
     71  CG        10.2050    3.7600   23.7330 C.3   271  MET271      0.0598
     72  SD        11.0040    2.1860   24.0920 S.3   271  MET271     -0.1393
     73  CE        12.0680    2.0040   22.6200 C.3   271  MET271      0.0692
     74  N          2.4710    3.4020   33.4660 N.3   294  VAL294     -0.1231
     75  CA         2.9510    2.2360   34.2140 C.3   294  VAL294      0.1692
     76  C          4.2580    2.4910   34.9680 C.2   294  VAL294      0.2592
     77  O          4.7040    1.6470   35.7430 O.2   294  VAL294     -0.2718
     78  CB         3.1310    1.0140   33.3030 C.3   294  VAL294      0.0266
     79  CG1        1.8110    0.6480   32.6180 C.3   294  VAL294      0.0020
     80  CG2        4.2260    1.2750   32.2570 C.3   294  VAL294      0.0020
     81  N          4.8630    3.6510   34.7460 N.am  295  SER295     -0.1952
     82  CA         6.0780    4.0150   35.4550 C.3   295  SER295      0.1924
     83  C          5.9870    5.4630   35.8820 C.2   295  SER295      0.2314
     84  O          5.8000    6.3580   35.0630 O.2   295  SER295     -0.2863
     85  CB         7.3030    3.8150   34.5700 C.3   295  SER295      0.2116
     86  OG         8.4690    4.2800   35.2300 O.3   295  SER295     -0.2180
     87  N          8.1750    8.1850   37.2690 N.3   297  ARG297     -0.1245
     88  CA         9.5890    8.4430   37.3150 C.3   297  ARG297      0.1563
     89  C          9.8720    9.4960   38.3990 C.2   297  ARG297      0.2260
     90  O         11.0190    9.7100   38.7720 O.2   297  ARG297     -0.2867
     91  CB        10.0500    8.8960   35.9190 C.3   297  ARG297      0.0307
     92  CG         9.7210    7.8920   34.7590 C.3   297  ARG297      0.0489
     93  CD        10.6930    6.7040   34.7040 C.3   297  ARG297      0.2205
     94  NE        12.1090    7.0930   34.7860 N.pl3 297  ARG297     -0.0865
     95  CZ        12.8620    7.5040   33.7610 C.cat 297  ARG297      0.5346
     96  NH1       12.3570    7.5710   32.5320 N.pl3 297  ARG297      0.1354
     97  NH2       14.1320    7.8430   33.9680 N.pl3 297  ARG297      0.1354
     98  N          6.9550    1.2210   39.4650 N.3   303  MET303     -0.1245
     99  CA         6.2510    0.7110   38.2890 C.3   303  MET303      0.1570
    100  C          4.9630    0.0130   38.7070 C.2   303  MET303      0.2261
    101  O          4.8770   -0.5570   39.7980 O.2   303  MET303     -0.2867
    102  CB         7.1220   -0.2490   37.4900 C.3   303  MET303      0.0387
    103  CG         8.1900    0.4560   36.6450 C.3   303  MET303      0.0595
    104  SD         8.7290   -0.6000   35.2940 S.3   303  MET303     -0.1393
    105  CE         7.3170   -0.5160   34.1870 C.3   303  MET303      0.0692
@<TRIPOS>BOND
     1    69    68    2
     2    68    67    1
     3    67    70    1
     4    67    66    1
     5    64    63   ar
     6    70    71    1
     7    73    72    1
     8    65    63   ar
     9    63    62    1
    10    66    59   am
    11    71    72    1
    12    60    59    2
    13    59    58    1
    14    62    61    1
    15    61    58    1
    16    58    57    1
    17    18    19    1
    18    57    51   am
    19     1     2    1
    20    37    35   am
    21     4     3    2
    22    19    22    1
    23    19    20    1
    24    22    23    1
    25    51    50    1
    26    51    52    2
    27    34    35    1
    28    34    33    1
    29    35    36    2
    30    55    53    1
    31    29    30    1
    32    50    53    1
    33    50    49    1
    34     6     5    1
    35     3     2    1
    36     3     8   am
    37     2     5    1
    38    20    21    2
    39    24    23   ar
    40    24    26   ar
    41    23    25   ar
    42    12     9    1
    43    12    13    1
    44    53    54    1
    45    30    33    1
    46    30    31    1
    47     5     7    1
    48     9     8    1
    49     9    10    1
    50    54    56    1
    51    26    28   ar
    52    25    27   ar
    53    31    32    2
    54    10    14   am
    55    10    11    2
    56    28    27   ar
    57    14    15    1
    58    17    16    2
    59    47    46    1
    60    15    16    1
    61    38    39    1
    62    80    78    1
    63    41    40    2
    64    46    48    1
    65    46    45    2
    66    96    95    1
    67    79    78    1
    68    44    43    1
    69    44    45    1
    70    42    43    1
    71    42    39    1
    72    39    40    1
    73    78    75    1
    74    74    75    1
    75    95    97    1
    76    95    94    2
    77   105   104    1
    78    75    76    1
    79    85    86    1
    80    85    82    1
    81    93    92    1
    82    93    94    1
    83    81    76   am
    84    81    82    1
    85    92    91    1
    86    76    77    2
    87    84    83    2
    88   104   103    1
    89    82    83    1
    90    91    88    1
    91   103   102    1
    92    87    88    1
    93    88    89    1
    94   102    99    1
    95    99   100    1
    96    99    98    1
    97    89    90    2
    98   100   101    2
