@<TRIPOS>MOLECULE
tmp/3bjmA04.pdb
 179 174 0 0 0
SMALL
GASTEIGER

@<TRIPOS>ATOM
      1  N         49.7230   61.3270   33.7000 N.3    87  ARG87      -0.1245
      2  CA        50.3070   60.4230   32.7190 C.3    87  ARG87       0.1563
      3  C         50.1450   60.9410   31.2850 C.2    87  ARG87       0.2260
      4  O         51.0440   60.7770   30.4590 O.2    87  ARG87      -0.2867
      5  CB        49.6990   59.0190   32.8490 C.3    87  ARG87       0.0307
      6  CG        50.3980   57.9510   31.9920 C.3    87  ARG87       0.0489
      7  CD        49.5810   56.6550   31.8900 C.3    87  ARG87       0.2205
      8  NE        49.4180   55.9960   33.1860 N.pl3  87  ARG87      -0.0865
      9  CZ        50.3060   55.1480   33.6990 C.cat  87  ARG87       0.5346
     10  NH1       51.4130   54.8670   33.0220 N.pl3  87  ARG87       0.1354
     11  NH2       50.0910   54.5780   34.8830 N.pl3  87  ARG87       0.1354
     12  N         43.2520   58.4560   33.6700 N.3   167  GLU167     -0.1231
     13  CA        44.1000   57.3190   33.9800 C.3   167  GLU167      0.1699
     14  C         43.4470   55.9720   33.6990 C.2   167  GLU167      0.2592
     15  O         44.1130   55.0430   33.2600 O.2   167  GLU167     -0.2718
     16  CB        44.5320   57.3760   35.4440 C.3   167  GLU167      0.0402
     17  CG        45.2700   56.1260   35.9280 C.3   167  GLU167      0.1161
     18  CD        46.6550   55.9420   35.2950 C.2   167  GLU167      0.3649
     19  OE1       47.1980   56.8990   34.6980 O.co2 167  GLU167     -0.2457
     20  OE2       47.2040   54.8240   35.3980 O.co2 167  GLU167     -0.2457
     21  N         42.1480   55.8660   33.9620 N.am  168  GLU168     -0.1979
     22  CA        41.4880   54.5660   34.0350 C.3   168  GLU168      0.1602
     23  C         40.4160   54.3270   32.9720 C.2   168  GLU168      0.2287
     24  O         39.9640   53.1940   32.8010 O.2   168  GLU168     -0.2864
     25  CB        40.8600   54.3790   35.4160 C.3   168  GLU168      0.0415
     26  CG        41.8140   54.5830   36.5740 C.3   168  GLU168      0.1163
     27  CD        42.9380   53.5540   36.6140 C.2   168  GLU168      0.3649
     28  OE1       43.2250   52.9250   35.5710 O.co2 168  GLU168     -0.2457
     29  OE2       43.5400   53.3780   37.6960 O.co2 168  GLU168     -0.2457
     30  N         42.3420   56.8660   28.9840 N.3   171  SER171     -0.1217
     31  CA        43.7890   56.8460   28.7590 C.3   171  SER171      0.1889
     32  C         44.2140   58.0860   27.9750 C.2   171  SER171      0.2288
     33  O         44.9920   57.9930   27.0250 O.2   171  SER171     -0.2866
     34  CB        44.2050   55.5970   27.9630 C.3   171  SER171      0.2089
     35  OG        43.9080   54.3990   28.6630 O.3   171  SER171     -0.2183
     36  N         39.7130   46.0030   29.7180 N.3   319  PHE319     -0.1227
     37  CA        39.7930   47.0690   30.7100 C.3   319  PHE319      0.1736
     38  C         38.5700   47.9640   30.6210 C.2   319  PHE319      0.2595
     39  O         38.2870   48.7360   31.5340 O.2   319  PHE319     -0.2718
     40  CB        41.0570   47.9020   30.4980 C.3   319  PHE319      0.0547
     41  CG        42.3200   47.1160   30.6480 C.ar  319  PHE319     -0.0202
     42  CD1       42.8960   46.9440   31.8970 C.ar  319  PHE319     -0.0042
     43  CD2       42.9180   46.5250   29.5450 C.ar  319  PHE319     -0.0042
     44  CE1       44.0390   46.1990   32.0500 C.ar  319  PHE319     -0.0003
     45  CE2       44.0630   45.7770   29.6890 C.ar  319  PHE319     -0.0003
     46  CZ        44.6270   45.6120   30.9460 C.ar  319  PHE319     -0.0000
     47  N         37.8540   47.8460   29.5100 N.am  320  ARG320     -0.1980
     48  CA        36.6320   48.6040   29.2620 C.3   320  ARG320      0.1597
     49  C         35.9260   47.9740   28.0530 C.2   320  ARG320      0.2287
     50  O         36.5320   47.2120   27.2970 O.2   320  ARG320     -0.2864
     51  CB        36.9670   50.0820   28.9780 C.3   320  ARG320      0.0334
     52  CG        37.8300   50.3190   27.7400 C.3   320  ARG320      0.0492
     53  CD        38.4890   51.7000   27.7480 C.3   320  ARG320      0.2205
     54  NE        39.7850   51.7020   28.4470 N.pl3 320  ARG320     -0.0865
     55  CZ        39.9330   51.7240   29.7760 C.cat 320  ARG320      0.5346
     56  NH1       38.8720   51.7430   30.5750 N.pl3 320  ARG320      0.1354
     57  NH2       41.1470   51.7230   30.3150 N.pl3 320  ARG320      0.1354
     58  N         54.4290   41.2200   37.1610 N.3   509  TYR509     -0.1241
     59  CA        53.3870   42.2220   37.2040 C.3   509  TYR509      0.1605
     60  C         52.1050   41.5400   37.6660 C.2   509  TYR509      0.2264
     61  O         51.6900   41.7010   38.8110 O.2   509  TYR509     -0.2867
     62  CB        53.1890   42.8520   35.8300 C.3   509  TYR509      0.0534
     63  CG        52.2550   44.0320   35.8760 C.ar  509  TYR509     -0.0201
     64  CD1       52.6600   45.2420   36.4340 C.ar  509  TYR509     -0.0009
     65  CD2       50.9590   43.9340   35.3890 C.ar  509  TYR509     -0.0009
     66  CE1       51.7920   46.3240   36.5050 C.ar  509  TYR509      0.0417
     67  CE2       50.0830   45.0050   35.4550 C.ar  509  TYR509      0.0417
     68  CZ        50.5010   46.1960   36.0130 C.ar  509  TYR509      0.1957
     69  OH        49.6170   47.2540   36.0900 O.3   509  TYR509     -0.2866
     70  N         48.9180   41.7180   37.1630 N.3   511  GLY511     -0.1210
     71  CA        47.6040   42.3140   37.3100 C.3   511  GLY511      0.1940
     72  C         46.6260   41.7140   36.3120 C.2   511  GLY511      0.2453
     73  O         47.0350   41.0190   35.3840 O.2   511  GLY511     -0.2732
     74  N         45.3210   41.9750   36.4710 N.am  512  PRO512     -0.2728
     75  CA        44.2880   41.4690   35.5640 C.3   512  PRO512      0.1401
     76  C         44.5390   41.8350   34.1000 C.2   512  PRO512      0.2269
     77  O         44.7520   43.0020   33.7650 O.2   512  PRO512     -0.2865
     78  CB        43.0100   42.1040   36.0940 C.3   512  PRO512      0.0296
     79  CG        43.3010   42.4030   37.5160 C.3   512  PRO512      0.0237
     80  CD        44.7460   42.7730   37.5650 C.3   512  PRO512      0.0939
     81  N         54.3130   48.6150   41.0450 N.3   592  SER592     -0.1202
     82  CA        52.8480   48.8010   41.1150 C.3   592  SER592      0.2020
     83  C         52.0450   47.5520   41.4950 C.2   592  SER592      0.2618
     84  O         52.0870   47.1150   42.6370 O.2   592  SER592     -0.2717
     85  CB        52.3100   49.3670   39.7930 C.3   592  SER592      0.2103
     86  OG        51.0020   49.8920   40.1240 O.3   592  SER592     -0.2182
     87  N         51.3050   46.9760   40.5540 N.am  593  TYR593     -0.1975
     88  CA        50.6350   45.7140   40.8480 C.3   593  TYR593      0.1639
     89  C         51.6830   44.6290   41.0760 C.2   593  TYR593      0.2290
     90  O         51.4660   43.6920   41.8470 O.2   593  TYR593     -0.2864
     91  CB        49.7050   45.2970   39.7060 C.3   593  TYR593      0.0560
     92  CG        48.6640   44.2760   40.1270 C.ar  593  TYR593     -0.0198
     93  CD1       49.0070   42.9430   40.3330 C.ar  593  TYR593     -0.0009
     94  CD2       47.3390   44.6510   40.3390 C.ar  593  TYR593     -0.0009
     95  CE1       48.0610   42.0090   40.7420 C.ar  593  TYR593      0.0417
     96  CE2       46.3860   43.7280   40.7460 C.ar  593  TYR593      0.0417
     97  CZ        46.7550   42.4050   40.9440 C.ar  593  TYR593      0.1957
     98  OH        45.8070   41.4780   41.3180 O.3   593  TYR593     -0.2866
     99  N         50.8870   48.6940   45.5610 N.3   618  VAL618     -0.1245
    100  CA        49.6010   48.7780   46.2260 C.3   618  VAL618      0.1561
    101  C         49.7100   47.8960   47.4600 C.2   618  VAL618      0.2260
    102  O         50.3380   46.8330   47.3990 O.2   618  VAL618     -0.2867
    103  CB        48.4840   48.2420   45.3240 C.3   618  VAL618      0.0252
    104  CG1       47.2560   47.8750   46.1740 C.3   618  VAL618      0.0019
    105  CG2       48.1160   49.2930   44.2880 C.3   618  VAL618      0.0019
    106  N         43.5610   47.6260   48.8640 N.3   621  TRP621     -0.1241
    107  CA        42.7980   48.0760   47.7040 C.3   621  TRP621      0.1605
    108  C         41.8820   49.2530   47.9660 C.2   621  TRP621      0.2264
    109  O         41.5460   49.9870   47.0390 O.2   621  TRP621     -0.2867
    110  CB        42.0070   46.9120   47.1020 C.3   621  TRP621      0.0550
    111  CG        42.9060   45.9990   46.3700 C.ar  621  TRP621      0.0003
    112  CD1       43.2930   44.7460   46.7560 C.ar  621  TRP621      0.0946
    113  CD2       43.6760   46.3180   45.2040 C.ar  621  TRP621      0.0152
    114  NE1       44.2690   44.2740   45.9130 N.ar  621  TRP621     -0.2442
    115  CE2       44.5230   45.2200   44.9520 C.ar  621  TRP621      0.0810
    116  CE3       43.7350   47.4280   44.3520 C.ar  621  TRP621      0.0012
    117  CZ2       45.4220   45.2000   43.8890 C.ar  621  TRP621      0.0191
    118  CZ3       44.6260   47.4060   43.2960 C.ar  621  TRP621      0.0001
    119  CH2       45.4590   46.2980   43.0740 C.ar  621  TRP621      0.0015
    120  N         43.5270   52.4140   46.5960 N.3   624  TYR624     -0.1241
    121  CA        43.6600   52.6970   45.1720 C.3   624  TYR624      0.1605
    122  C         42.3320   53.1770   44.5990 C.2   624  TYR624      0.2264
    123  O         41.3140   53.1250   45.2940 O.2   624  TYR624     -0.2867
    124  CB        44.1570   51.4610   44.4210 C.3   624  TYR624      0.0534
    125  CG        44.7250   51.8230   43.0760 C.ar  624  TYR624     -0.0201
    126  CD1       45.8120   52.6910   42.9740 C.ar  624  TYR624     -0.0009
    127  CD2       44.1360   51.3620   41.9000 C.ar  624  TYR624     -0.0009
    128  CE1       46.2900   53.0960   41.7360 C.ar  624  TYR624      0.0417
    129  CE2       44.6130   51.7590   40.6520 C.ar  624  TYR624      0.0417
    130  CZ        45.6850   52.6240   40.5750 C.ar  624  TYR624      0.1957
    131  OH        46.1450   53.0260   39.3390 O.3   624  TYR624     -0.2866
    132  N         39.4080   51.3530   38.6870 N.3   628  TYR628     -0.1241
    133  CA        40.2120   50.1580   38.4520 C.3   628  TYR628      0.1605
    134  C         39.8800   49.0840   39.4850 C.2   628  TYR628      0.2264
    135  O         39.6480   47.9230   39.1410 O.2   628  TYR628     -0.2867
    136  CB        41.7090   50.4880   38.5360 C.3   628  TYR628      0.0534
    137  CG        42.6080   49.2740   38.3880 C.ar  628  TYR628     -0.0201
    138  CD1       42.9460   48.5010   39.4840 C.ar  628  TYR628     -0.0009
    139  CD2       43.1020   48.8960   37.1440 C.ar  628  TYR628     -0.0009
    140  CE1       43.7510   47.3750   39.3510 C.ar  628  TYR628      0.0417
    141  CE2       43.9080   47.7800   37.0000 C.ar  628  TYR628      0.0417
    142  CZ        44.2270   47.0240   38.1060 C.ar  628  TYR628      0.1957
    143  OH        45.0210   45.9120   37.9710 O.3   628  TYR628     -0.2866
    144  N         36.3290   47.5450   39.4790 N.3   631  ARG631     -0.1245
    145  CA        36.1650   46.7420   38.2750 C.3   631  ARG631      0.1563
    146  C         36.3840   45.2700   38.6050 C.2   631  ARG631      0.2260
    147  O         35.7070   44.3980   38.0630 O.2   631  ARG631     -0.2867
    148  CB        37.1650   47.1930   37.2030 C.3   631  ARG631      0.0307
    149  CG        37.0500   46.4480   35.8800 C.3   631  ARG631      0.0489
    150  CD        37.4040   47.3620   34.7140 C.3   631  ARG631      0.2205
    151  NE        38.8430   47.5280   34.6020 N.pl3 631  ARG631     -0.0865
    152  CZ        39.4560   48.6910   34.4240 C.cat 631  ARG631      0.5346
    153  NH1       38.7540   49.8160   34.3270 N.pl3 631  ARG631      0.1354
    154  NH2       40.7810   48.7190   34.3650 N.pl3 631  ARG631      0.1354
    155  N         49.4970   58.4420   41.7260 N.3   672  ASN672     -0.1225
    156  CA        48.7410   57.2990   41.2360 C.3   672  ASN672      0.1785
    157  C         48.6150   56.2450   42.3240 C.2   672  ASN672      0.2597
    158  O         47.5240   56.0160   42.8490 O.2   672  ASN672     -0.2718
    159  CB        49.4270   56.7090   39.9960 C.3   672  ASN672      0.1169
    160  CG        48.6230   55.5900   39.3640 C.2   672  ASN672      0.2627
    161  OD1       47.6170   55.1570   39.9170 O.2   672  ASN672     -0.2716
    162  ND2       49.0630   55.1150   38.2010 N.am  672  ASN672     -0.0877
    163  N         49.7310   55.6010   42.6590 N.am  673  VAL673     -0.1980
    164  CA        49.7920   54.7550   43.8440 C.3   673  VAL673      0.1595
    165  C         50.3890   55.6250   44.9300 C.2   673  VAL673      0.2287
    166  O         51.5830   55.9310   44.8980 O.2   673  VAL673     -0.2864
    167  CB        50.7170   53.5350   43.6480 C.3   673  VAL673      0.0276
    168  CG1       50.7340   52.6970   44.9090 C.3   673  VAL673      0.0022
    169  CG2       50.2470   52.7000   42.4730 C.3   673  VAL673      0.0022
    170  N         54.9570   58.2030   40.0140 N.3   702  HIS702     -0.1241
    171  CA        54.8660   56.7540   39.9270 C.3   702  HIS702      0.1621
    172  C         55.9500   56.1260   39.0410 C.2   702  HIS702      0.2264
    173  O         56.3830   55.0060   39.2880 O.2   702  HIS702     -0.2867
    174  CB        53.4810   56.3390   39.4140 C.3   702  HIS702      0.0745
    175  CG        53.2560   54.8640   39.4670 C.ar  702  HIS702      0.0817
    176  ND1       53.1450   54.1770   40.6580 N.ar  702  HIS702     -0.2268
    177  CD2       53.2130   53.9290   38.4870 C.ar  702  HIS702      0.1154
    178  CE1       53.0490   52.8830   40.4090 C.ar  702  HIS702      0.1986
    179  NE2       53.0890   52.7050   39.1000 N.ar  702  HIS702     -0.2212
@<TRIPOS>BOND
     1    33    32    2
     2    50    49    2
     3    52    53    1
     4    52    51    1
     5    53    54    1
     6    34    35    1
     7    34    31    1
     8    32    31    1
     9    49    48    1
    10    54    55    2
    11    31    30    1
    12    51    48    1
    13    48    47    1
    14    47    38   am
    15    43    45   ar
    16    43    41   ar
    17    45    46   ar
    18    36    37    1
    19    55    57    1
    20    55    56    1
    21     4     3    2
    22    40    41    1
    23    40    37    1
    24    38    37    1
    25    38    39    2
    26    41    42   ar
    27    46    44   ar
    28     3     2    1
    29     7     6    1
    30     7     8    1
    31    42    44   ar
    32     6     5    1
    33     2     5    1
    34     2     1    1
    35    24    23    2
    36    23    22    1
    37    10     9    1
    38     8     9    2
    39    15    14    2
    40    12    13    1
    41     9    11    1
    42    14    21   am
    43    14    13    1
    44    77    76    2
    45    21    22    1
    46    13    16    1
    47    22    25    1
    48    76    75    1
    49   153   152    1
    50   154   152    1
    51   152   151    2
    52   151   150    1
    53    19    18   ar
    54   150   149    1
    55    18    20   ar
    56    18    17    1
    57    73    72    2
    58    65    67   ar
    59    65    63   ar
    60    25    26    1
    61    16    17    1
    62    67    68   ar
    63    75    78    1
    64    75    74    1
    65    28    27   ar
    66    62    63    1
    67    62    59    1
    68    63    64   ar
    69   149   148    1
    70    68    69    1
    71    68    66   ar
    72    78    79    1
    73    72    74   am
    74    72    71    1
    75    64    66   ar
    76    74    80    1
    77    26    27    1
    78    27    29   ar
    79   141   139   ar
    80   141   142   ar
    81   139   137   ar
    82    58    59    1
    83    70    71    1
    84   148   145    1
    85    59    60    1
    86    79    80    1
    87    60    61    2
    88   143   142    1
    89   147   146    2
    90   142   140   ar
    91   162   160   am
    92   145   146    1
    93   145   144    1
    94   137   136    1
    95   137   138   ar
    96   133   136    1
    97   133   132    1
    98   133   134    1
    99   177   179   ar
   100   177   175   ar
   101   172   173    2
   102   172   171    1
   103   179   178   ar
   104   135   134    2
   105   131   130    1
   106   140   138   ar
   107   160   161    2
   108   160   159    1
   109   174   175    1
   110   174   171    1
   111   175   176   ar
   112    91    92    1
   113    91    88    1
   114    85    86    1
   115    85    82    1
   116   171   170    1
   117   159   156    1
   118    92    93   ar
   119    92    94   ar
   120    93    95   ar
   121    94    96   ar
   122   178   176   ar
   123    87    88    1
   124    87    83   am
   125   130   129   ar
   126   130   128   ar
   127   129   127   ar
   128    95    97   ar
   129    96    97   ar
   130    88    89    1
   131    97    98    1
   132    81    82    1
   133    89    90    2
   134    82    83    1
   135   156   155    1
   136   156   157    1
   137    83    84    2
   138   128   126   ar
   139   127   125   ar
   140   157   163   am
   141   157   158    2
   142   169   167    1
   143   163   164    1
   144   126   125   ar
   145   119   118   ar
   146   119   117   ar
   147   125   124    1
   148   118   116   ar
   149   167   164    1
   150   167   168    1
   151   164   165    1
   152   117   115   ar
   153   105   103    1
   154   116   113   ar
   155   124   121    1
   156   122   121    1
   157   122   123    2
   158   166   165    2
   159   115   113   ar
   160   115   114   ar
   161   121   120    1
   162   113   111   ar
   163   103   104    1
   164   103   100    1
   165    99   100    1
   166   114   112   ar
   167   100   101    1
   168   111   112   ar
   169   111   110    1
   170   109   108    2
   171   110   107    1
   172   102   101    2
   173   107   108    1
   174   107   106    1
