@<TRIPOS>MOLECULE
tmp/3bjqE00.pdb
 127 119 0 0 0
SMALL
GASTEIGER

@<TRIPOS>ATOM
      1  N        -63.7220   61.1560   14.2010 N.3    13  ALA13      -0.1231
      2  CA       -63.1450   59.8140   14.0490 C.3    13  ALA13       0.1694
      3  C        -64.0740   58.7240   14.5750 C.2    13  ALA13       0.2591
      4  O        -64.1060   57.6330   14.0090 O.2    13  ALA13      -0.2718
      5  CB       -61.7700   59.6820   14.7580 C.3    13  ALA13       0.0304
      6  N        -64.7850   59.0030   15.6720 N.am   14  ARG14      -0.1980
      7  CA       -65.7150   58.0210   16.2600 C.3    14  ARG14       0.1597
      8  C        -66.9400   57.7490   15.4080 C.2    14  ARG14       0.2287
      9  O        -67.5510   56.7110   15.5490 O.2    14  ARG14      -0.2864
     10  CB       -66.1990   58.4630   17.6350 C.3    14  ARG14       0.0334
     11  CG       -65.1250   58.5430   18.6480 C.3    14  ARG14       0.0492
     12  CD       -65.7170   58.7770   19.9950 C.3    14  ARG14       0.2205
     13  NE       -64.6720   58.8390   21.0110 N.pl3  14  ARG14      -0.0865
     14  CZ       -64.0480   59.9470   21.3880 C.cat  14  ARG14       0.5346
     15  NH1      -64.3610   61.1160   20.8370 N.pl3  14  ARG14       0.1354
     16  NH2      -63.1090   59.8900   22.3310 N.pl3  14  ARG14       0.1354
     17  N        -66.7040   57.6210   12.0740 N.3    16  TYR16      -0.1227
     18  CA       -66.1860   57.0470   10.8260 C.3    16  TYR16       0.1736
     19  C        -66.7600   55.6590   10.5980 C.2    16  TYR16       0.2595
     20  O        -66.6760   54.8210   11.4800 O.2    16  TYR16      -0.2718
     21  CB       -64.6560   56.9430   10.8810 C.3    16  TYR16       0.0548
     22  CG       -63.9780   56.4090    9.6210 C.ar   16  TYR16      -0.0200
     23  CD1      -63.5500   57.2750    8.6290 C.ar   16  TYR16      -0.0009
     24  CD2      -63.7210   55.0550    9.4520 C.ar   16  TYR16      -0.0009
     25  CE1      -62.9320   56.8050    7.4800 C.ar   16  TYR16       0.0417
     26  CE2      -63.1010   54.5700    8.2910 C.ar   16  TYR16       0.0417
     27  CZ       -62.7260   55.4600    7.3090 C.ar   16  TYR16       0.1957
     28  OH       -62.1010   55.0330    6.1740 O.3    16  TYR16      -0.2866
     29  N        -67.3410   55.4440    9.4200 N.am   17  ARG17      -0.1980
     30  CA       -67.9630   54.1840    9.0370 C.3    17  ARG17       0.1597
     31  C        -67.4210   53.6950    7.6990 C.2    17  ARG17       0.2287
     32  O        -67.0830   54.4770    6.8280 O.2    17  ARG17      -0.2864
     33  CB       -69.4840   54.3570    8.8960 C.3    17  ARG17       0.0334
     34  CG       -70.1800   54.9020   10.1360 C.3    17  ARG17       0.0492
     35  CD       -70.2140   53.8580   11.2400 C.3    17  ARG17       0.2205
     36  NE       -70.9190   54.3600   12.4210 N.pl3  17  ARG17      -0.0865
     37  CZ       -70.3480   54.8610   13.5150 C.cat  17  ARG17       0.5346
     38  NH1      -69.0240   54.9360   13.6500 N.pl3  17  ARG17       0.1354
     39  NH2      -71.1240   55.2850   14.5030 N.pl3  17  ARG17       0.1354
     40  N        -66.3720   44.1600   12.1380 N.3    24  LYS24      -0.1245
     41  CA       -67.0600   44.5850   13.3710 C.3    24  LYS24       0.1561
     42  C        -68.4270   43.9310   13.5420 C.2    24  LYS24       0.2260
     43  O        -69.0240   44.0040   14.6120 O.2    24  LYS24      -0.2867
     44  CB       -67.1760   46.1070   13.4080 C.3    24  LYS24       0.0271
     45  CG       -65.8370   46.7990   13.3560 C.3    24  LYS24       0.0035
     46  CD       -65.9250   48.3200   13.2360 C.3    24  LYS24       0.0206
     47  CE       -64.5840   48.9550   13.6190 C.3    24  LYS24       0.1093
     48  NZ       -64.5680   50.4620   13.6010 N.3    24  LYS24      -0.1314
     49  N        -66.8680   46.2380   18.6060 N.3    29  VAL29      -0.1245
     50  CA       -65.9480   47.0190   19.4010 C.3    29  VAL29       0.1561
     51  C        -66.4330   47.1940   20.8470 C.2    29  VAL29       0.2260
     52  O        -67.5510   47.6150   21.1000 O.2    29  VAL29      -0.2867
     53  CB       -65.6140   48.3790   18.7250 C.3    29  VAL29       0.0252
     54  CG1      -64.6680   49.1940   19.6020 C.3    29  VAL29       0.0019
     55  CG2      -64.9960   48.1420   17.3570 C.3    29  VAL29       0.0019
     56  N        -57.6250   56.3870    9.2060 N.3   107  LEU107     -0.1245
     57  CA       -58.6550   55.5220    9.7320 C.3   107  LEU107      0.1561
     58  C        -58.9570   54.3960    8.7400 C.2   107  LEU107      0.2260
     59  O        -59.2610   53.2800    9.1530 O.2   107  LEU107     -0.2867
     60  CB       -59.9260   56.3160   10.0920 C.3   107  LEU107      0.0270
     61  CG       -59.8170   57.2480   11.3110 C.3   107  LEU107      0.0019
     62  CD1      -61.1050   58.0060   11.5520 C.3   107  LEU107      0.0001
     63  CD2      -59.4540   56.4100   12.5470 C.3   107  LEU107      0.0001
     64  N        -58.8330   50.4910    9.3660 N.3   110  ALA110     -0.1245
     65  CA       -60.0500   49.7240    9.1120 C.3   110  ALA110      0.1562
     66  C        -59.7950   48.4730    8.2900 C.2   110  ALA110      0.2260
     67  O        -60.3670   47.3970    8.5390 O.2   110  ALA110     -0.2867
     68  CB       -61.0580   50.6030    8.4450 C.3   110  ALA110      0.0290
     69  N        -57.8340   45.9630   10.4090 N.3   113  HIS113     -0.1241
     70  CA       -58.8110   45.3060   11.3020 C.3   113  HIS113      0.1621
     71  C        -59.6040   44.2210   10.5710 C.2   113  HIS113      0.2264
     72  O        -59.8200   43.1380   11.0870 O.2   113  HIS113     -0.2867
     73  CB       -59.7500   46.3520   11.8900 C.3   113  HIS113      0.0745
     74  CG       -60.8060   45.7830   12.7580 C.ar  113  HIS113      0.0817
     75  ND1      -62.0870   45.5380   12.2970 N.ar  113  HIS113     -0.2268
     76  CD2      -60.7790   45.3660   14.0420 C.ar  113  HIS113      0.1154
     77  CE1      -62.8080   45.0180   13.2700 C.ar  113  HIS113      0.1986
     78  NE2      -62.0450   44.9050   14.3420 N.ar  113  HIS113     -0.2212
     79  N        -63.8420   43.1450   19.3780 N.3   250  THR250     -0.1218
     80  CA       -62.6470   43.9230   19.0850 C.3   250  THR250      0.1862
     81  C        -62.2940   44.6210   20.4240 C.2   250  THR250      0.2287
     82  O        -62.9760   45.5350   20.8730 O.2   250  THR250     -0.2866
     83  CB       -62.8460   44.9160   17.8830 C.3   250  THR250      0.1770
     84  OG1      -63.0430   44.1840   16.6490 O.3   250  THR250     -0.2211
     85  CG2      -61.6640   45.8410   17.7250 C.3   250  THR250      0.0375
     86  N        -60.7140   47.1320   22.4670 N.3   252  GLN252     -0.1245
     87  CA       -60.2850   48.4430   22.0240 C.3   252  GLN252      0.1566
     88  C        -60.0560   49.3540   23.1920 C.2   252  GLN252      0.2260
     89  O        -60.8870   49.4470   24.0790 O.2   252  GLN252     -0.2867
     90  CB       -61.3130   49.0790   21.0880 C.3   252  GLN252      0.0367
     91  CG       -60.8020   50.3660   20.4470 C.3   252  GLN252      0.0905
     92  CD       -61.4510   50.6560   19.1130 C.2   252  GLN252      0.2608
     93  OE1      -61.3430   49.8580   18.1790 O.2   252  GLN252     -0.2717
     94  NE2      -62.1220   51.8030   19.0100 N.am  252  GLN252     -0.0878
     95  N        -60.6660   55.3590   22.3040 N.3   256  HIS256     -0.1227
     96  CA       -60.1710   55.3090   20.9330 C.3   256  HIS256      0.1737
     97  C        -61.3520   55.1420   19.9680 C.2   256  HIS256      0.2438
     98  O        -62.3210   54.4820   20.2930 O.2   256  HIS256     -0.2733
     99  CB       -59.1350   54.2050   20.7770 C.3   256  HIS256      0.0758
    100  CG       -57.8520   54.4940   21.4850 C.ar  256  HIS256      0.0818
    101  ND1      -56.6340   54.0200   21.0540 N.ar  256  HIS256     -0.2268
    102  CD2      -57.5890   55.2730   22.5580 C.ar  256  HIS256      0.1154
    103  CE1      -55.6850   54.4450   21.8620 C.ar  256  HIS256      0.1986
    104  NE2      -56.2380   55.2100   22.7830 N.ar  256  HIS256     -0.2212
    105  N        -61.2740   55.7260   18.7660 N.am  257  PRO257     -0.2729
    106  CA       -60.1840   56.5040   18.2110 C.3   257  PRO257      0.1401
    107  C        -60.0330   57.9020   18.7810 C.2   257  PRO257      0.2269
    108  O        -61.0380   58.5600   19.0340 O.2   257  PRO257     -0.2865
    109  CB       -60.5640   56.6090   16.7300 C.3   257  PRO257      0.0296
    110  CG       -62.0170   56.5360   16.7340 C.3   257  PRO257      0.0237
    111  CD       -62.3610   55.5570   17.7930 C.3   257  PRO257      0.0939
    112  N        -55.9160   54.3690   17.3760 N.3   277  ASP277     -0.1239
    113  CA       -57.0890   53.4940   17.4820 C.3   277  ASP277      0.1674
    114  C        -56.6070   52.0740   17.7690 C.2   277  ASP277      0.2266
    115  O        -56.6990   51.1810   16.9210 O.2   277  ASP277     -0.2867
    116  CB       -57.9380   53.5430   16.2120 C.3   277  ASP277      0.1410
    117  CG       -59.3260   53.0130   16.4510 C.2   277  ASP277      0.3668
    118  OD1      -59.5060   52.4450   17.5570 O.co2 277  ASP277     -0.2456
    119  OD2      -60.2220   53.1570   15.5710 O.co2 277  ASP277     -0.2456
    120  N        -56.3780   48.5080   19.0590 N.3   279  ASN279     -0.1240
    121  CA       -57.3890   47.4760   19.1860 C.3   279  ASN279      0.1653
    122  C        -56.8430   46.1230   18.7630 C.2   279  ASN279      0.2266
    123  O        -55.7940   46.0320   18.1280 O.2   279  ASN279     -0.2867
    124  CB       -58.6060   47.8250   18.3200 C.3   279  ASN279      0.1155
    125  CG       -58.3490   47.6220   16.8180 C.2   279  ASN279      0.2627
    126  OD1      -58.6830   46.5660   16.2620 O.2   279  ASN279     -0.2716
    127  ND2      -57.7560   48.6330   16.1600 N.am  279  ASN279     -0.0877
@<TRIPOS>BOND
     1    28    27    1
     2    32    31    2
     3    27    25   ar
     4    27    26   ar
     5    25    23   ar
     6    31    30    1
     7    66    67    2
     8    66    65    1
     9    26    24   ar
    10    68    65    1
    11    23    22   ar
    12    58    59    2
    13    58    57    1
    14    33    30    1
    15    33    34    1
    16    30    29    1
    17    65    64    1
    18    56    57    1
    19    29    19   am
    20    24    22   ar
    21    22    21    1
    22    57    60    1
    23    60    61    1
    24    34    35    1
    25    69    70    1
    26    71    72    2
    27    71    70    1
    28    19    18    1
    29    19    20    2
    30    18    21    1
    31    18    17    1
    32    35    36    1
    33    70    73    1
    34    61    62    1
    35    61    63    1
    36    73    74    1
    37    40    41    1
    38    75    74   ar
    39    75    77   ar
    40    36    37    2
    41    74    76   ar
    42    46    45    1
    43    46    47    1
    44    77    78   ar
    45    45    44    1
    46    41    44    1
    47    41    42    1
    48    37    38    1
    49    37    39    1
    50    42    43    2
    51    48    47    1
    52     4     3    2
    53    76    78   ar
    54     2     1    1
    55     2     3    1
    56     2     5    1
    57     3     6   am
    58     8     9    2
    59     8     7    1
    60   119   117   ar
    61     6     7    1
    62   127   125   am
    63   116   117    1
    64   116   113    1
    65     7    10    1
    66   126   125    2
    67   117   118   ar
    68    84    83    1
    69   109   110    1
    70   109   106    1
    71   110   111    1
    72   125   124    1
    73   115   114    2
    74    55    53    1
    75   112   113    1
    76   113   114    1
    77    10    11    1
    78    85    83    1
    79   111   105    1
    80    83    80    1
    81   123   122    2
    82    93    92    2
    83   106   105    1
    84   106   107    1
    85   124   121    1
    86    49    50    1
    87    11    12    1
    88    53    50    1
    89    53    54    1
    90   122   121    1
    91   105    97   am
    92   107   108    2
    93    94    92   am
    94   120   121    1
    95    80    79    1
    96    80    81    1
    97    92    91    1
    98    50    51    1
    99    97    98    2
   100    97    96    1
   101    12    13    1
   102    81    82    2
   103    91    90    1
   104    99    96    1
   105    99   100    1
   106    15    14    1
   107    51    52    2
   108    96    95    1
   109    13    14    2
   110   101   100   ar
   111   101   103   ar
   112    90    87    1
   113    14    16    1
   114   100   102   ar
   115   103   104   ar
   116    87    86    1
   117    87    88    1
   118   102   104   ar
   119    88    89    2
