@<TRIPOS>MOLECULE
tmp/3bjuC01.pdb
 195 182 0 0 0
SMALL
GASTEIGER

@<TRIPOS>ATOM
      1  N         65.4010   17.2970   54.4800 N.3   204  ALA204     -0.1231
      2  CA        64.9100   18.6780   54.4570 C.3   204  ALA204      0.1694
      3  C         65.1990   19.4110   55.7430 C.2   204  ALA204      0.2591
      4  O         65.5060   18.8110   56.7620 O.2   204  ALA204     -0.2718
      5  CB        63.3750   18.7210   54.1420 C.3   204  ALA204      0.0304
      6  N         65.0840   20.7290   55.6980 N.am  205  VAL205     -0.1980
      7  CA        65.1850   21.5310   56.9140 C.3   205  VAL205      0.1595
      8  C         63.7530   21.6860   57.4590 C.2   205  VAL205      0.2287
      9  O         62.8890   22.3240   56.8440 O.2   205  VAL205     -0.2864
     10  CB        65.8750   22.8840   56.6010 C.3   205  VAL205      0.0276
     11  CG1       65.7150   23.8810   57.7320 C.3   205  VAL205      0.0022
     12  CG2       67.3730   22.6620   56.2590 C.3   205  VAL205      0.0022
     13  N         55.4460   17.6360   59.1550 N.3   249  ARG249     -0.1245
     14  CA        56.2250   18.6920   59.7530 C.3   249  ARG249      0.1563
     15  C         55.5600   19.2490   60.9870 C.2   249  ARG249      0.2260
     16  O         54.4000   19.6610   60.9580 O.2   249  ARG249     -0.2867
     17  CB        56.5100   19.8010   58.7390 C.3   249  ARG249      0.0307
     18  CG        57.7020   19.4640   57.8980 C.3   249  ARG249      0.0489
     19  CD        57.7920   20.3480   56.7010 C.3   249  ARG249      0.2205
     20  NE        58.6180   19.7490   55.6510 N.pl3 249  ARG249     -0.0865
     21  CZ        59.3120   20.4740   54.7840 C.cat 249  ARG249      0.5346
     22  NH1       59.2870   21.7890   54.8720 N.pl3 249  ARG249      0.1354
     23  NH2       60.0310   19.8940   53.8430 N.pl3 249  ARG249      0.1354
     24  N         55.0030   21.8970   62.7480 N.3   251  GLU251     -0.1245
     25  CA        54.9770   23.3470   62.5850 C.3   251  GLU251      0.1567
     26  C         53.5190   23.8000   62.5030 C.2   251  GLU251      0.2260
     27  O         52.6190   22.9800   62.4540 O.2   251  GLU251     -0.2867
     28  CB        55.7370   23.7500   61.3090 C.3   251  GLU251      0.0388
     29  CG        55.1630   23.0840   60.0560 C.3   251  GLU251      0.1160
     30  CD        55.9860   23.3390   58.8250 C.2   251  GLU251      0.3649
     31  OE1       55.3820   23.4420   57.7360 O.co2 251  GLU251     -0.2457
     32  OE2       57.2440   23.4230   58.9520 O.co2 251  GLU251     -0.2457
     33  N         48.6830   27.9990   53.5610 N.3   256  THR256     -0.1203
     34  CA        49.4370   27.1710   52.6230 C.3   256  THR256      0.1994
     35  C         50.1350   25.9900   53.3060 C.2   256  THR256      0.2618
     36  O         50.8540   25.2380   52.6490 O.2   256  THR256     -0.2717
     37  CB        50.4760   28.0030   51.8260 C.3   256  THR256      0.1784
     38  OG1       51.3890   28.6250   52.7410 O.3   256  THR256     -0.2211
     39  CG2       49.7990   29.0880   50.9960 C.3   256  THR256      0.0376
     40  N         49.9180   25.8200   54.6100 N.am  257  HIS257     -0.1961
     41  CA        50.6090   24.7620   55.3800 C.3   257  HIS257      0.1787
     42  C         49.6920   23.8710   56.2070 C.2   257  HIS257      0.2620
     43  O         48.8800   24.3460   57.0190 O.2   257  HIS257     -0.2715
     44  CB        51.6710   25.3520   56.3400 C.3   257  HIS257      0.0785
     45  CG        52.7990   26.0610   55.6520 C.ar  257  HIS257      0.0821
     46  ND1       52.6960   27.3620   55.2020 N.ar  257  HIS257     -0.2267
     47  CD2       54.0500   25.6530   55.3360 C.ar  257  HIS257      0.1154
     48  CE1       53.8330   27.7260   54.6400 C.ar  257  HIS257      0.1986
     49  NE2       54.6730   26.7100   54.7070 N.ar  257  HIS257     -0.2212
     50  N         49.8430   22.5700   56.0130 N.am  258  ASN258     -0.1972
     51  CA        49.2010   21.5950   56.8750 C.3   258  ASN258      0.1688
     52  C         50.3440   20.7320   57.4630 C.2   258  ASN258      0.2292
     53  O         51.3740   20.5540   56.8130 O.2   258  ASN258     -0.2864
     54  CB        48.1750   20.7750   56.0790 C.3   258  ASN258      0.1181
     55  CG        47.2270   19.9830   56.9770 C.2   258  ASN258      0.2629
     56  OD1       46.3510   20.5550   57.6400 O.2   258  ASN258     -0.2716
     57  ND2       47.3940   18.6500   57.0000 N.am  258  ASN258     -0.0877
     58  N         51.2280   16.5520   54.7150 N.3   261  PHE261     -0.1241
     59  CA        50.9330   16.9970   53.3770 C.3   261  PHE261      0.1605
     60  C         51.5450   16.0070   52.4010 C.2   261  PHE261      0.2264
     61  O         52.3700   15.1770   52.7670 O.2   261  PHE261     -0.2867
     62  CB        51.4630   18.4160   53.1570 C.3   261  PHE261      0.0534
     63  CG        52.9600   18.5390   53.3080 C.ar  261  PHE261     -0.0203
     64  CD1       53.5300   18.7840   54.5520 C.ar  261  PHE261     -0.0042
     65  CD2       53.8060   18.4230   52.1880 C.ar  261  PHE261     -0.0042
     66  CE1       54.9250   18.8990   54.6870 C.ar  261  PHE261     -0.0003
     67  CE2       55.1930   18.5410   52.3220 C.ar  261  PHE261     -0.0003
     68  CZ        55.7570   18.7830   53.5600 C.ar  261  PHE261     -0.0000
     69  N         53.5890   15.0050   48.8400 N.3   263  THR263     -0.1218
     70  CA        54.5150   15.4290   47.7970 C.3   263  THR263      0.1862
     71  C         54.7850   14.2730   46.8310 C.2   263  THR263      0.2287
     72  O         54.5740   13.1090   47.1640 O.2   263  THR263     -0.2866
     73  CB        55.8910   15.8850   48.3740 C.3   263  THR263      0.1770
     74  OG1       56.5740   14.7520   48.9290 O.3   263  THR263     -0.2211
     75  CG2       55.7130   16.9150   49.4400 C.3   263  THR263      0.0375
     76  N         58.1490   12.9300   45.0870 N.3   265  GLU265     -0.1245
     77  CA        59.6080   13.0580   44.8600 C.3   265  GLU265      0.1567
     78  C         60.0200   12.0450   43.8110 C.2   265  GLU265      0.2260
     79  O         59.5100   10.9190   43.7940 O.2   265  GLU265     -0.2867
     80  CB        60.4730   12.8370   46.1280 C.3   265  GLU265      0.0388
     81  CG        60.1440   13.7360   47.3230 C.3   265  GLU265      0.1160
     82  CD        61.3700   14.1780   48.1450 C.2   265  GLU265      0.3649
     83  OE1       62.4400   13.5100   48.1210 O.co2 265  GLU265     -0.2457
     84  OE2       61.2390   15.2180   48.8210 O.co2 265  GLU265     -0.2457
     85  N         66.3120   33.4750   52.8520 N.3   371  ASP371     -0.1239
     86  CA        64.9950   32.9980   52.4560 C.3   371  ASP371      0.1674
     87  C         63.8800   34.0400   52.7100 C.2   371  ASP371      0.2266
     88  O         62.9700   34.2170   51.8890 O.2   371  ASP371     -0.2867
     89  CB        64.7100   31.7080   53.2020 C.3   371  ASP371      0.1410
     90  CG        63.6150   30.9050   52.5630 C.2   371  ASP371      0.3668
     91  OD1       63.5390   30.8850   51.3030 O.co2 371  ASP371     -0.2456
     92  OD2       62.8290   30.2980   53.3210 O.co2 371  ASP371     -0.2456
     93  N         59.5720   36.0210   45.4960 N.3   379  GLU379     -0.1245
     94  CA        58.4950   35.0320   45.4980 C.3   379  GLU379      0.1567
     95  C         57.1160   35.6510   45.2630 C.2   379  GLU379      0.2260
     96  O         56.3110   35.0890   44.5180 O.2   379  GLU379     -0.2867
     97  CB        58.5340   34.1450   46.7510 C.3   379  GLU379      0.0388
     98  CG        59.8450   33.3460   46.8450 C.3   379  GLU379      0.1160
     99  CD        59.9470   32.4840   48.1110 C.2   379  GLU379      0.3649
    100  OE1       58.9590   32.3990   48.8820 O.co2 379  GLU379     -0.2457
    101  OE2       61.0180   31.8730   48.3220 O.co2 379  GLU379     -0.2457
    102  N         70.2540   24.0850   41.6750 N.3   411  ARG411     -0.1245
    103  CA        69.0300   23.9310   42.4000 C.3   411  ARG411      0.1563
    104  C         68.0270   24.8880   41.7880 C.2   411  ARG411      0.2260
    105  O         68.3970   25.9720   41.3440 O.2   411  ARG411     -0.2867
    106  CB        69.2490   24.2810   43.8740 C.3   411  ARG411      0.0307
    107  CG        67.9840   24.2860   44.6770 C.3   411  ARG411      0.0489
    108  CD        68.2730   24.3430   46.1470 C.3   411  ARG411      0.2205
    109  NE        67.0560   24.4290   46.9290 N.pl3 411  ARG411     -0.0865
    110  CZ        66.9730   24.9450   48.1500 C.cat 411  ARG411      0.5346
    111  NH1       68.0510   25.4340   48.7540 N.pl3 411  ARG411      0.1354
    112  NH2       65.7950   24.9930   48.7620 N.pl3 411  ARG411      0.1354
    113  N         63.6010   26.1430   42.2930 N.3   413  GLU413     -0.1245
    114  CA        62.2830   26.0080   42.8910 C.3   413  GLU413      0.1567
    115  C         61.2590   26.6280   41.9510 C.2   413  GLU413      0.2260
    116  O         61.4800   27.7080   41.4140 O.2   413  GLU413     -0.2867
    117  CB        62.2670   26.6500   44.2850 C.3   413  GLU413      0.0388
    118  CG        62.9450   25.7630   45.3330 C.3   413  GLU413      0.1160
    119  CD        63.0090   26.3880   46.7040 C.2   413  GLU413      0.3649
    120  OE1       63.1180   27.6290   46.8100 O.co2 413  GLU413     -0.2457
    121  OE2       62.9860   25.6240   47.6900 O.co2 413  GLU413     -0.2457
    122  N         55.4060   28.3280   46.6230 N.3   420  GLU420     -0.1231
    123  CA        56.3670   27.3240   46.1970 C.3   420  GLU420      0.1699
    124  C         55.6770   26.0160   45.8040 C.2   420  GLU420      0.2592
    125  O         54.8460   25.5090   46.5550 O.2   420  GLU420     -0.2718
    126  CB        57.3970   27.0450   47.2810 C.3   420  GLU420      0.0402
    127  CG        58.6260   26.3200   46.7490 C.3   420  GLU420      0.1161
    128  CD        59.5490   25.8960   47.8630 C.2   420  GLU420      0.3649
    129  OE1       59.9030   26.7530   48.7160 O.co2 420  GLU420     -0.2457
    130  OE2       59.9020   24.7040   47.9060 O.co2 420  GLU420     -0.2457
    131  N         56.0430   25.4740   44.6400 N.am  421  ILE421     -0.1966
    132  CA        55.4510   24.2290   44.1470 C.3   421  ILE421      0.1727
    133  C         56.4480   23.0540   44.1690 C.2   421  ILE421      0.2616
    134  O         56.1420   21.9850   44.7110 O.2   421  ILE421     -0.2715
    135  CB        54.9030   24.3750   42.6880 C.3   421  ILE421      0.0290
    136  CG1       54.0150   25.6230   42.5260 C.3   421  ILE421      0.0022
    137  CG2       54.1900   23.1080   42.2550 C.3   421  ILE421      0.0023
    138  CD1       52.8500   25.7080   43.5200 C.3   421  ILE421      0.0001
    139  N         57.6160   23.2490   43.5540 N.am  422  CYS422     -0.1954
    140  CA        58.6340   22.1880   43.4150 C.3   422  CYS422      0.1843
    141  C         59.9510   22.6760   43.9610 C.2   422  CYS422      0.2625
    142  O         60.2220   23.8830   43.9820 O.2   422  CYS422     -0.2714
    143  CB        58.8950   21.8140   41.9480 C.3   422  CYS422      0.0997
    144  SG        57.4340   21.4460   40.9830 S.3   422  CYS422     -0.0797
    145  N         60.7710   21.7160   44.3760 N.am  423  ASN423     -0.1972
    146  CA        62.1270   21.9600   44.8210 C.3   423  ASN423      0.1688
    147  C         62.9940   20.8490   44.2310 C.2   423  ASN423      0.2292
    148  O         62.7150   19.6690   44.4190 O.2   423  ASN423     -0.2864
    149  CB        62.1640   21.9340   46.3420 C.3   423  ASN423      0.1181
    150  CG        63.5410   22.2290   46.9000 C.2   423  ASN423      0.2629
    151  OD1       64.3940   22.7530   46.1960 O.2   423  ASN423     -0.2716
    152  ND2       63.7610   21.8890   48.1700 N.am  423  ASN423     -0.0877
    153  N         61.0570   17.3880   43.9790 N.3   474  GLY474     -0.1210
    154  CA        59.9850   17.2470   44.9570 C.3   474  GLY474      0.1956
    155  C         58.8660   18.2550   44.7180 C.2   474  GLY474      0.2612
    156  O         59.1120   19.4680   44.6480 O.2   474  GLY474     -0.2717
    157  N         57.6380   17.7640   44.6060 N.am  475  MET475     -0.1965
    158  CA        56.5040   18.6350   44.3320 C.3   475  MET475      0.1736
    159  C         55.3890   18.4490   45.3470 C.2   475  MET475      0.2617
    160  O         54.9670   17.3400   45.5840 O.2   475  MET475     -0.2715
    161  CB        55.9610   18.3620   42.9210 C.3   475  MET475      0.0427
    162  CG        54.7050   19.1560   42.5510 C.3   475  MET475      0.0599
    163  SD        54.2510   19.0020   40.8000 S.3   475  MET475     -0.1393
    164  CE        53.2290   17.5800   40.9800 C.3   475  MET475      0.0692
    165  N         54.9130   19.5390   45.9350 N.am  476  GLY476     -0.1955
    166  CA        53.7650   19.4770   46.8330 C.3   476  GLY476      0.1869
    167  C         52.4670   19.3470   46.0440 C.2   476  GLY476      0.2309
    168  O         52.0410   20.2960   45.3640 O.2   476  GLY476     -0.2863
    169  N         49.3560   19.1150   47.2840 N.3   478  ASP478     -0.1225
    170  CA        48.3600   20.0330   47.8140 C.3   478  ASP478      0.1805
    171  C         48.4660   21.4260   47.2200 C.2   478  ASP478      0.2597
    172  O         47.4550   22.0440   46.9500 O.2   478  ASP478     -0.2718
    173  CB        48.4100   20.1060   49.3510 C.3   478  ASP478      0.1424
    174  CG        48.8000   18.7780   49.9940 C.2   478  ASP478      0.3668
    175  OD1       47.8950   18.0070   50.4110 O.co2 478  ASP478     -0.2456
    176  OD2       50.0190   18.4990   50.0770 O.co2 478  ASP478     -0.2456
    177  N         49.6890   21.9130   47.0260 N.am  479  ARG479     -0.1979
    178  CA        49.9600   23.2260   46.4320 C.3   479  ARG479      0.1597
    179  C         49.5010   23.3020   45.0020 C.2   479  ARG479      0.2287
    180  O         48.9510   24.3000   44.5970 O.2   479  ARG479     -0.2864
    181  CB        51.4720   23.5490   46.4660 C.3   479  ARG479      0.0334
    182  CG        52.0930   23.7320   47.8670 C.3   479  ARG479      0.0492
    183  CD        51.7100   25.0920   48.4770 C.3   479  ARG479      0.2205
    184  NE        52.0840   25.1950   49.8860 N.pl3 479  ARG479     -0.0865
    185  CZ        53.2960   25.5520   50.3240 C.cat 479  ARG479      0.5346
    186  NH1       54.2450   25.8380   49.4590 N.pl3 479  ARG479      0.1354
    187  NH2       53.5600   25.6230   51.6270 N.pl3 479  ARG479      0.1354
    188  N         44.6990   26.1450   51.8160 N.3   490  ILE490     -0.1245
    189  CA        44.9820   24.7070   51.6490 C.3   490  ILE490      0.1561
    190  C         43.8350   23.7920   52.1450 C.2   490  ILE490      0.2260
    191  O         43.6690   22.6680   51.6560 O.2   490  ILE490     -0.2867
    192  CB        46.3250   24.3290   52.3280 C.3   490  ILE490      0.0252
    193  CG1       46.8400   22.9590   51.8390 C.3   490  ILE490      0.0019
    194  CG2       46.2200   24.4320   53.8590 C.3   490  ILE490      0.0019
    195  CD1       48.3510   22.7320   52.1100 C.3   490  ILE490      0.0001
@<TRIPOS>BOND
     1   163   164    1
     2   163   162    1
     3   144   143    1
     4   105   104    2
     5   116   115    2
     6   102   103    1
     7   104   103    1
     8   143   140    1
     9   115   114    1
    10   137   135    1
    11   113   114    1
    12   103   106    1
    13   136   135    1
    14   136   138    1
    15   162   161    1
    16   135   132    1
    17   114   117    1
    18   161   158    1
    19   140   139    1
    20   140   141    1
    21   139   133   am
    22    79    78    2
    23    78    77    1
    24   106   107    1
    25   141   142    2
    26   141   145   am
    27   153   154    1
    28   132   133    1
    29   132   131    1
    30   133   134    2
    31   147   148    2
    32   147   146    1
    33   117   118    1
    34   158   157    1
    35   158   159    1
    36   145   146    1
    37    96    95    2
    38   180   179    2
    39   157   155   am
    40   131   124   am
    41   156   155    2
    42   107   108    1
    43   155   154    1
    44   146   149    1
    45    77    76    1
    46    77    80    1
    47   179   178    1
    48    95    94    1
    49   118   119    1
    50   159   160    2
    51   159   165   am
    52   168   167    2
    53    93    94    1
    54    94    97    1
    55   124   123    1
    56   124   125    2
    57   165   166    1
    58   167   166    1
    59    80    81    1
    60   108   109    1
    61   151   150    2
    62   123   122    1
    63   123   126    1
    64   149   150    1
    65   178   181    1
    66   178   177    1
    67   181   182    1
    68   119   120   ar
    69   119   121   ar
    70   127   126    1
    71   127   128    1
    72    97    98    1
    73    71    72    2
    74    71    70    1
    75    98    99    1
    76   150   152   am
    77   109   110    2
    78   172   171    2
    79   177   171   am
    80   171   170    1
    81   169   170    1
    82    81    82    1
    83    70    73    1
    84    70    69    1
    85   170   173    1
    86   128   130   ar
    87   128   129   ar
    88   182   183    1
    89    99   101   ar
    90    99   100   ar
    91    83    82   ar
    92    82    84   ar
    93   110   111    1
    94   110   112    1
    95    73    74    1
    96    73    75    1
    97   183   184    1
    98   173   174    1
    99   186   185    1
   100   184   185    2
   101   174   176   ar
   102   174   175   ar
   103   185   187    1
   104    39    37    1
   105    91    90   ar
   106   189   188    1
   107   189   190    1
   108   189   192    1
   109   191   190    2
   110    37    34    1
   111    37    38    1
   112   193   195    1
   113   193   192    1
   114    88    87    2
   115    65    67   ar
   116    65    63   ar
   117    67    68   ar
   118   192   194    1
   119    60    61    2
   120    60    59    1
   121    86    87    1
   122    86    85    1
   123    86    89    1
   124    90    89    1
   125    90    92   ar
   126    34    35    1
   127    34    33    1
   128    36    35    2
   129    62    63    1
   130    62    59    1
   131    35    40   am
   132    63    64   ar
   133    59    58    1
   134    68    66   ar
   135    23    21    1
   136     5     2    1
   137     2     1    1
   138     2     3    1
   139    64    66   ar
   140    40    41    1
   141    48    49   ar
   142    48    46   ar
   143    49    47   ar
   144    21    22    1
   145    21    20    2
   146    46    45   ar
   147    47    45   ar
   148    41    42    1
   149    41    44    1
   150    20    19    1
   151    45    44    1
   152     6     3   am
   153     6     7    1
   154     3     4    2
   155    50    42   am
   156    50    51    1
   157    54    51    1
   158    54    55    1
   159    42    43    2
   160    12    10    1
   161    10     7    1
   162    10    11    1
   163    19    18    1
   164    53    52    2
   165     9     8    2
   166    51    52    1
   167     7     8    1
   168    55    57   am
   169    55    56    2
   170    31    30   ar
   171    18    17    1
   172    17    14    1
   173    30    32   ar
   174    30    29    1
   175    13    14    1
   176    14    15    1
   177    29    28    1
   178    16    15    2
   179    28    25    1
   180    27    26    2
   181    26    25    1
   182    25    24    1
