@<TRIPOS>MOLECULE
tmp/3bjwG02.pdb
 80 77 0 0 0
SMALL
GASTEIGER

@<TRIPOS>ATOM
      1  N         26.7520  -36.8630   -2.2500 N.3     2  VAL2       -0.1231
      2  CA        26.9620  -36.4030   -0.8880 C.3     2  VAL2        0.1692
      3  C         26.9770  -34.8650   -0.8960 C.2     2  VAL2        0.2591
      4  O         26.4700  -34.2170    0.0240 O.2     2  VAL2       -0.2718
      5  CB        28.2770  -37.0130   -0.3300 C.3     2  VAL2        0.0266
      6  CG1       29.3240  -35.9540   -0.1270 C.3     2  VAL2        0.0020
      7  CG2       27.9870  -37.7710    0.9650 C.3     2  VAL2        0.0020
      8  N         27.5280  -34.2970   -1.9670 N.am    3  VAL3       -0.1980
      9  CA        27.5960  -32.8490   -2.1550 C.3     3  VAL3        0.1595
     10  C         26.1960  -32.2990   -2.4280 C.2     3  VAL3        0.2287
     11  O         25.7820  -31.3000   -1.8380 O.2     3  VAL3       -0.2864
     12  CB        28.5060  -32.4980   -3.3570 C.3     3  VAL3        0.0276
     13  CG1       28.3350  -31.0410   -3.7470 C.3     3  VAL3        0.0022
     14  CG2       29.9600  -32.7880   -3.0130 C.3     3  VAL3        0.0022
     15  N         21.1610  -27.5660    3.3780 N.3    10  ILE10      -0.1245
     16  CA        21.3150  -26.1490    3.6570 C.3    10  ILE10       0.1561
     17  C         20.0810  -25.3790    3.1750 C.2    10  ILE10       0.2260
     18  O         19.5690  -24.5130    3.8750 O.2    10  ILE10      -0.2867
     19  CB        22.5870  -25.6010    2.9740 C.3    10  ILE10       0.0252
     20  CG1       23.8240  -26.1950    3.6540 C.3    10  ILE10       0.0019
     21  CG2       22.6070  -24.0800    3.0460 C.3    10  ILE10       0.0019
     22  CD1       25.1130  -25.9730    2.8960 C.3    10  ILE10       0.0001
     23  N         23.8460  -26.1110    8.0460 N.3    16  SER16      -0.1203
     24  CA        24.9070  -26.7370    7.2690 C.3    16  SER16       0.2005
     25  C         25.1730  -28.1290    7.8150 C.2    16  SER16       0.2461
     26  O         25.3020  -28.3080    9.0260 O.2    16  SER16      -0.2732
     27  CB        26.1840  -25.9020    7.3440 C.3    16  SER16       0.2103
     28  OG        26.5900  -25.7160    8.6900 O.3    16  SER16      -0.2182
     29  N         25.2600  -29.1370    6.9280 N.am   17  PRO17      -0.2717
     30  CA        25.5150  -30.5050    7.3820 C.3    17  PRO17       0.1535
     31  C         26.5100  -30.5050    8.5420 C.2    17  PRO17       0.2598
     32  O         26.2230  -31.0610    9.5980 O.2    17  PRO17      -0.2715
     33  CB        26.0500  -31.1820    6.1300 C.3    17  PRO17       0.0310
     34  CG        25.2740  -30.4990    5.0550 C.3    17  PRO17       0.0237
     35  CD        25.3460  -29.0530    5.4600 C.3    17  PRO17       0.0939
     36  N         27.6730  -29.8840    8.3580 N.am   18  PHE18      -0.1961
     37  CA        28.6360  -29.8060    9.4580 C.3    18  PHE18       0.1756
     38  C         28.4690  -28.4690   10.1720 C.2    18  PHE18       0.2461
     39  O         28.5390  -27.4190    9.5390 O.2    18  PHE18      -0.2730
     40  CB        30.0760  -29.8880    8.9700 C.3    18  PHE18       0.0574
     41  CG        31.0830  -29.6910   10.0730 C.ar   18  PHE18      -0.0200
     42  CD1       31.2700  -30.6710   11.0420 C.ar   18  PHE18      -0.0042
     43  CD2       31.8000  -28.5060   10.1760 C.ar   18  PHE18      -0.0042
     44  CE1       32.1520  -30.4770   12.0990 C.ar   18  PHE18      -0.0003
     45  CE2       32.6850  -28.2990   11.2310 C.ar   18  PHE18      -0.0003
     46  CZ        32.8620  -29.2860   12.1950 C.ar   18  PHE18      -0.0000
     47  N         28.2970  -28.4850   11.5070 N.am   19  PRO19      -0.2727
     48  CA        28.2510  -29.6520   12.3920 C.3    19  PRO19       0.1402
     49  C         26.8220  -29.9940   12.7910 C.2    19  PRO19       0.2269
     50  O         26.5960  -30.7750   13.7210 O.2    19  PRO19      -0.2865
     51  CB        29.0480  -29.1770   13.5870 C.3    19  PRO19       0.0296
     52  CG        28.5130  -27.7860   13.7480 C.3    19  PRO19       0.0237
     53  CD        28.4460  -27.2540   12.3090 C.3    19  PRO19       0.0939
     54  N         26.1440  -33.9100   10.6470 N.3    22  THR22      -0.1218
     55  CA        27.1790  -34.9280   10.4770 C.3    22  THR22       0.1862
     56  C         27.4320  -35.8140   11.7040 C.2    22  THR22       0.2287
     57  O         28.0660  -36.8640   11.5930 O.2    22  THR22      -0.2866
     58  CB        28.5030  -34.2880   10.0230 C.3    22  THR22       0.1770
     59  OG1       28.7950  -33.1540   10.8490 O.3    22  THR22      -0.2211
     60  CG2       28.4000  -33.8360    8.5700 C.3    22  THR22       0.0375
     61  N         27.2680  -38.1570   -8.7090 N.3    63  ARG63      -0.1245
     62  CA        26.7650  -36.7910   -8.8660 C.3    63  ARG63       0.1563
     63  C         25.4980  -36.7280   -9.7180 C.2    63  ARG63       0.2260
     64  O         25.3620  -37.4580  -10.7020 O.2    63  ARG63      -0.2867
     65  CB        27.8300  -35.9030   -9.5300 C.3    63  ARG63       0.0307
     66  CG        28.8510  -35.2710   -8.5950 C.3    63  ARG63       0.0489
     67  CD        29.5660  -36.2930   -7.7000 C.3    63  ARG63       0.2205
     68  NE        30.6010  -35.6570   -6.8820 N.pl3  63  ARG63      -0.0865
     69  CZ        30.3780  -34.6560   -6.0340 C.cat  63  ARG63       0.5346
     70  NH1       29.1540  -34.1700   -5.8750 N.pl3  63  ARG63       0.1354
     71  NH2       31.3860  -34.1140   -5.3660 N.pl3  63  ARG63       0.1354
     72  N         20.1040  -29.9990   19.8140 N.3   105  LYS105     -0.1245
     73  CA        21.5210  -29.6890   19.6460 C.3   105  LYS105      0.1561
     74  C         22.4550  -30.5710   20.4970 C.2   105  LYS105      0.2260
     75  O         23.6310  -30.7510   20.1680 O.2   105  LYS105     -0.2867
     76  CB        21.7440  -28.2090   19.9800 C.3   105  LYS105      0.0271
     77  CG        23.2010  -27.7900   20.0820 C.3   105  LYS105      0.0035
     78  CD        23.6030  -26.8810   18.9390 C.3   105  LYS105      0.0206
     79  CE        25.0370  -26.4090   19.1080 C.3   105  LYS105      0.1093
     80  NZ        25.4730  -25.5450   17.9830 N.3   105  LYS105     -0.1314
@<TRIPOS>BOND
     1    64    63    2
     2    63    62    1
     3    65    62    1
     4    65    66    1
     5    62    61    1
     6    66    67    1
     7    67    68    1
     8    68    69    2
     9    69    70    1
    10    69    71    1
    11    13    12    1
    12    12    14    1
    13    12     9    1
    14    10     9    1
    15    10    11    2
    16     1     2    1
    17     9     8    1
    18     8     3   am
    19     3     2    1
    20     3     4    2
    21     2     5    1
    22     5     6    1
    23     5     7    1
    24    22    20    1
    25    19    21    1
    26    19    20    1
    27    19    16    1
    28    17    16    1
    29    17    18    2
    30    15    16    1
    31    34    35    1
    32    34    33    1
    33    35    29    1
    34    33    30    1
    35    29    30    1
    36    29    25   am
    37    24    27    1
    38    24    25    1
    39    24    23    1
    40    27    28    1
    41    30    31    1
    42    25    26    2
    43    36    31   am
    44    36    37    1
    45    31    32    2
    46    60    58    1
    47    40    37    1
    48    40    41    1
    49    37    38    1
    50    39    38    2
    51    58    55    1
    52    58    59    1
    53    41    43   ar
    54    41    42   ar
    55    38    47   am
    56    43    45   ar
    57    55    54    1
    58    55    56    1
    59    42    44   ar
    60    45    46   ar
    61    47    53    1
    62    47    48    1
    63    57    56    2
    64    44    46   ar
    65    53    52    1
    66    48    49    1
    67    48    51    1
    68    49    50    2
    69    51    52    1
    70    80    79    1
    71    78    79    1
    72    78    77    1
    73    73    72    1
    74    73    76    1
    75    73    74    1
    76    76    77    1
    77    75    74    2
