@<TRIPOS>MOLECULE
tmp/3bjwG01.pdb
 128 131 0 0 0
SMALL
GASTEIGER

@<TRIPOS>ATOM
      1  N         20.4090  -25.2720    7.8300 N.3    15  LYS15      -0.1245
      2  CA        21.5420  -25.6880    8.6510 C.3    15  LYS15       0.1561
      3  C         22.5760  -26.3860    7.7860 C.2    15  LYS15       0.2260
      4  O         22.2330  -27.1610    6.8930 O.2    15  LYS15      -0.2867
      5  CB        21.0840  -26.6480    9.7500 C.3    15  LYS15       0.0271
      6  CG        20.0660  -26.0610   10.7320 C.3    15  LYS15       0.0035
      7  CD        19.8320  -27.0290   11.8900 C.3    15  LYS15       0.0206
      8  CE        18.7320  -26.5630   12.8210 C.3    15  LYS15       0.1093
      9  NZ        19.0080  -25.2250   13.4190 N.3    15  LYS15      -0.1314
     10  N         25.8590  -29.4060   12.0920 N.3    20  SER20      -0.1217
     11  CA        24.4540  -29.6370   12.4050 C.3    20  SER20       0.1889
     12  C         23.9430  -31.0730   12.2970 C.2    20  SER20       0.2288
     13  O         23.1880  -31.5220   13.1630 O.2    20  SER20      -0.2866
     14  CB        23.5730  -28.7170   11.5590 C.3    20  SER20       0.2089
     15  OG        23.6160  -27.3980   12.0680 O.3    20  SER20      -0.2183
     16  N         11.7730  -30.4130   16.8480 N.3   102  THR102     -0.1203
     17  CA        12.2460  -31.2600   17.9390 C.3   102  THR102      0.1994
     18  C         13.7450  -31.5520   17.8250 C.2   102  THR102      0.2618
     19  O         14.2530  -32.4700   18.4630 O.2   102  THR102     -0.2717
     20  CB        11.4920  -32.5980   18.0010 C.3   102  THR102      0.1784
     21  OG1       11.7410  -33.3320   16.8020 O.3   102  THR102     -0.2211
     22  CG2        9.9960  -32.3650   18.1720 C.3   102  THR102      0.0376
     23  N         14.4310  -30.7600   16.9990 N.am  103  TYR103     -0.1961
     24  CA        15.8740  -30.8790   16.7760 C.3   103  TYR103      0.1771
     25  C         16.5930  -30.5740   18.0950 C.2   103  TYR103      0.2620
     26  O         16.4430  -29.4770   18.6360 O.2   103  TYR103     -0.2715
     27  CB        16.3160  -29.8650   15.7110 C.3   103  TYR103      0.0574
     28  CG        17.8160  -29.7940   15.4940 C.ar  103  TYR103     -0.0198
     29  CD1       18.4300  -30.5240   14.4780 C.ar  103  TYR103     -0.0009
     30  CD2       18.6270  -29.0370   16.3400 C.ar  103  TYR103     -0.0009
     31  CE1       19.8180  -30.5040   14.3120 C.ar  103  TYR103      0.0417
     32  CE2       20.0070  -29.0140   16.1840 C.ar  103  TYR103      0.0417
     33  CZ        20.5980  -29.7470   15.1710 C.ar  103  TYR103      0.1957
     34  OH        21.9630  -29.7230   15.0120 O.3   103  TYR103     -0.2866
     35  N         17.3710  -31.5290   18.6020 N.am  104  ASN104     -0.1958
     36  CA        18.0930  -31.3440   19.8680 C.3   104  ASN104      0.1819
     37  C         19.5980  -31.2140   19.6430 C.2   104  ASN104      0.2621
     38  O         20.2790  -32.1910   19.3290 O.2   104  ASN104     -0.2715
     39  CB        17.8240  -32.5320   20.8020 C.3   104  ASN104      0.1195
     40  CG        18.1370  -32.2260   22.2630 C.2   104  ASN104      0.2630
     41  OD1       19.1410  -31.5930   22.5880 O.2   104  ASN104     -0.2716
     42  ND2       17.2750  -32.6950   23.1500 N.am  104  ASN104     -0.0877
     43  N         20.1040  -29.9990   19.8140 N.am  105  LYS105     -0.1963
     44  CA        21.5210  -29.6890   19.6460 C.3   105  LYS105      0.1728
     45  C         22.4550  -30.5710   20.4970 C.2   105  LYS105      0.2616
     46  O         23.6310  -30.7510   20.1680 O.2   105  LYS105     -0.2715
     47  CB        21.7440  -28.2090   19.9800 C.3   105  LYS105      0.0311
     48  CG        23.2010  -27.7900   20.0820 C.3   105  LYS105      0.0038
     49  CD        23.6030  -26.8810   18.9390 C.3   105  LYS105      0.0206
     50  CE        25.0370  -26.4090   19.1080 C.3   105  LYS105      0.1093
     51  NZ        25.4730  -25.5450   17.9830 N.3   105  LYS105     -0.1314
     52  N         21.9340  -31.1070   21.5960 N.am  106  LYS106     -0.1963
     53  CA        22.7210  -31.9720   22.4630 C.3   106  LYS106      0.1728
     54  C         22.9560  -33.3330   21.8090 C.2   106  LYS106      0.2616
     55  O         23.9520  -34.0010   22.0890 O.2   106  LYS106     -0.2715
     56  CB        22.0200  -32.1690   23.8130 C.3   106  LYS106      0.0311
     57  CG        22.0070  -30.9400   24.7230 C.3   106  LYS106      0.0038
     58  CD        21.3230  -31.2550   26.0540 C.3   106  LYS106      0.0206
     59  CE        21.7250  -30.2720   27.1550 C.3   106  LYS106      0.1093
     60  NZ        21.3500  -28.8680   26.8460 N.3   106  LYS106     -0.1314
     61  N         22.0470  -33.7430   20.9300 N.am  107  TYR107     -0.1974
     62  CA        22.1900  -35.0340   20.2600 C.3   107  TYR107      0.1639
     63  C         23.3240  -34.9880   19.2470 C.2   107  TYR107      0.2290
     64  O         23.6630  -35.9920   18.6150 O.2   107  TYR107     -0.2864
     65  CB        20.8720  -35.4330   19.5880 C.3   107  TYR107      0.0560
     66  CG        19.7790  -35.7780   20.5850 C.ar  107  TYR107     -0.0198
     67  CD1       20.0810  -35.9720   21.9400 C.ar  107  TYR107     -0.0009
     68  CD2       18.4510  -35.9380   20.1740 C.ar  107  TYR107     -0.0009
     69  CE1       19.0940  -36.3160   22.8540 C.ar  107  TYR107      0.0417
     70  CE2       17.4540  -36.2840   21.0820 C.ar  107  TYR107      0.0417
     71  CZ        17.7840  -36.4700   22.4170 C.ar  107  TYR107      0.1957
     72  OH        16.8040  -36.8000   23.3210 O.3   107  TYR107     -0.2866
     73  N         26.2780  -34.0720   20.2190 N.3   109  TYR109     -0.1227
     74  CA        27.4130  -34.5440   20.9960 C.3   109  TYR109      0.1736
     75  C         26.8920  -35.4800   22.0700 C.2   109  TYR109      0.2595
     76  O         27.2620  -35.3790   23.2350 O.2   109  TYR109     -0.2718
     77  CB        28.1950  -33.3750   21.6210 C.3   109  TYR109      0.0548
     78  CG        27.3720  -32.2410   22.2240 C.ar  109  TYR109     -0.0200
     79  CD1       27.0290  -32.2300   23.5780 C.ar  109  TYR109     -0.0009
     80  CD2       27.0040  -31.1450   21.4540 C.ar  109  TYR109     -0.0009
     81  CE1       26.3510  -31.1470   24.1460 C.ar  109  TYR109      0.0417
     82  CE2       26.3280  -30.0630   22.0060 C.ar  109  TYR109      0.0417
     83  CZ        26.0050  -30.0640   23.3520 C.ar  109  TYR109      0.1957
     84  OH        25.3500  -28.9680   23.8860 O.3   109  TYR109     -0.2866
     85  N         26.0240  -36.3980   21.6530 N.am  110  TYR110     -0.1963
     86  CA        25.4150  -37.3740   22.5540 C.3   110  TYR110      0.1756
     87  C         26.4270  -38.3160   23.2060 C.2   110  TYR110      0.2461
     88  O         27.4980  -38.5600   22.6670 O.2   110  TYR110     -0.2730
     89  CB        24.3800  -38.2190   21.8040 C.3   110  TYR110      0.0574
     90  CG        24.9770  -39.1210   20.7480 C.ar  110  TYR110     -0.0198
     91  CD1       25.1060  -38.6880   19.4360 C.ar  110  TYR110     -0.0009
     92  CD2       25.4440  -40.3940   21.0680 C.ar  110  TYR110     -0.0009
     93  CE1       25.6900  -39.4950   18.4610 C.ar  110  TYR110      0.0417
     94  CE2       26.0330  -41.2110   20.1010 C.ar  110  TYR110      0.0417
     95  CZ        26.1550  -40.7520   18.7930 C.ar  110  TYR110      0.1957
     96  OH        26.7630  -41.5270   17.8120 O.3   110  TYR110     -0.2866
     97  N         26.0760  -38.8740   24.3780 N.am  111  PRO111     -0.2727
     98  CA        26.9380  -39.7990   25.1180 C.3   111  PRO111      0.1402
     99  C         27.5040  -40.8930   24.2140 C.2   111  PRO111      0.2269
    100  O         26.7910  -41.4510   23.3820 O.2   111  PRO111     -0.2865
    101  CB        25.9950  -40.3600   26.1760 C.3   111  PRO111      0.0296
    102  CG        25.1220  -39.1970   26.4780 C.3   111  PRO111      0.0237
    103  CD        24.8030  -38.6690   25.0940 C.3   111  PRO111      0.0939
    104  N         28.1430  -43.8530   24.8600 N.3   113  PHE113     -0.1227
    105  CA        27.6380  -45.1800   25.1880 C.3   113  PHE113      0.1736
    106  C         26.1880  -45.3630   24.7150 C.2   113  PHE113      0.2595
    107  O         25.5580  -46.3560   25.0400 O.2   113  PHE113     -0.2718
    108  CB        27.7230  -45.4160   26.7040 C.3   113  PHE113      0.0547
    109  CG        27.0150  -44.3710   27.5370 C.ar  113  PHE113     -0.0202
    110  CD1       27.7330  -43.3630   28.1770 C.ar  113  PHE113     -0.0042
    111  CD2       25.6300  -44.4050   27.6970 C.ar  113  PHE113     -0.0042
    112  CE1       27.0750  -42.3990   28.9740 C.ar  113  PHE113     -0.0003
    113  CE2       24.9670  -43.4510   28.4860 C.ar  113  PHE113     -0.0003
    114  CZ        25.6940  -42.4480   29.1250 C.ar  113  PHE113     -0.0000
    115  N         25.6780  -44.4270   23.9160 N.am  114  TRP114     -0.1976
    116  CA        24.2860  -44.4760   23.4630 C.3   114  TRP114      0.1640
    117  C         23.8090  -45.2990   22.2830 C.2   114  TRP114      0.2290
    118  O         22.6190  -45.5920   22.2040 O.2   114  TRP114     -0.2864
    119  CB        23.7600  -43.0600   23.2320 C.3   114  TRP114      0.0576
    120  CG        22.9910  -42.4970   24.3880 C.ar  114  TRP114      0.0006
    121  CD1       22.7960  -43.0760   25.6090 C.ar  114  TRP114      0.0946
    122  CD2       22.3480  -41.2200   24.4420 C.ar  114  TRP114      0.0152
    123  NE1       22.0730  -42.2360   26.4200 N.ar  114  TRP114     -0.2442
    124  CE2       21.7870  -41.0900   25.7270 C.ar  114  TRP114      0.0810
    125  CE3       22.1940  -40.1730   23.5280 C.ar  114  TRP114      0.0012
    126  CZ2       21.0870  -39.9550   26.1210 C.ar  114  TRP114      0.0191
    127  CZ3       21.5000  -39.0480   23.9200 C.ar  114  TRP114      0.0001
    128  CH2       20.9550  -38.9460   25.2040 C.ar  114  TRP114      0.0015
@<TRIPOS>BOND
     1     4     3    2
     2     3     2    1
     3     1     2    1
     4     2     5    1
     5     5     6    1
     6     6     7    1
     7    14    15    1
     8    14    11    1
     9     7     8    1
    10    10    11    1
    11    12    11    1
    12    12    13    2
    13     8     9    1
    14    31    29   ar
    15    31    33   ar
    16    29    28   ar
    17    34    33    1
    18    33    32   ar
    19    28    27    1
    20    28    30   ar
    21    27    24    1
    22    32    30   ar
    23    24    23    1
    24    24    25    1
    25    21    20    1
    26    16    17    1
    27    23    18   am
    28    96    95    1
    29    18    17    1
    30    18    19    2
    31    17    20    1
    32    51    50    1
    33    20    22    1
    34    25    35   am
    35    25    26    2
    36    93    95   ar
    37    93    91   ar
    38    35    36    1
    39    64    63    2
    40    95    94   ar
    41    49    50    1
    42    49    48    1
    43    63    62    1
    44    38    37    2
    45    91    90   ar
    46    65    62    1
    47    65    66    1
    48    37    43   am
    49    37    36    1
    50    44    43    1
    51    44    47    1
    52    44    45    1
    53    36    39    1
    54    47    48    1
    55    94    92   ar
    56    46    45    2
    57    68    66   ar
    58    68    70   ar
    59    73    74    1
    60    62    61    1
    61    45    52   am
    62    66    67   ar
    63    90    92   ar
    64    90    89    1
    65    39    40    1
    66    61    54   am
    67    74    77    1
    68    74    75    1
    69    70    71   ar
    70    80    82   ar
    71    80    78   ar
    72    52    53    1
    73    77    78    1
    74    85    75   am
    75    85    86    1
    76    89    86    1
    77    54    55    2
    78    54    53    1
    79    67    69   ar
    80    82    83   ar
    81    75    76    2
    82   118   117    2
    83    78    79   ar
    84    40    41    2
    85    40    42   am
    86   117   116    1
    87    71    69   ar
    88    71    72    1
    89    53    56    1
    90    86    87    1
    91    88    87    2
    92    87    97   am
    93   119   116    1
    94   119   120    1
    95    83    84    1
    96    83    81   ar
    97   100    99    2
    98   116   115    1
    99   125   127   ar
   100   125   122   ar
   101    79    81   ar
   102    56    57    1
   103   115   106   am
   104   127   128   ar
   105    99    98    1
   106    97   103    1
   107    97    98    1
   108   120   122   ar
   109   120   121   ar
   110   122   124   ar
   111   106   107    2
   112   106   105    1
   113    57    58    1
   114   104   105    1
   115   103   102    1
   116    98   101    1
   117   105   108    1
   118   128   126   ar
   119   121   123   ar
   120   124   126   ar
   121   124   123   ar
   122    58    59    1
   123   101   102    1
   124   108   109    1
   125    60    59    1
   126   109   111   ar
   127   109   110   ar
   128   111   113   ar
   129   110   112   ar
   130   113   114   ar
   131   112   114   ar
