@<TRIPOS>MOLECULE
tmp/3bjwB01.pdb
 104 97 0 0 0
SMALL
GASTEIGER

@<TRIPOS>ATOM
      1  N         20.4360  -41.0120   44.0760 N.3     3  VAL3       -0.1245
      2  CA        21.1060  -41.5710   42.9060 C.3     3  VAL3        0.1561
      3  C         20.1000  -41.7180   41.7640 C.2     3  VAL3        0.2260
      4  O         20.3510  -41.2990   40.6390 O.2     3  VAL3       -0.2867
      5  CB        21.6770  -42.9780   43.2210 C.3     3  VAL3        0.0252
      6  CG1       22.2310  -43.6130   41.9660 C.3     3  VAL3        0.0019
      7  CG2       22.7480  -42.8830   44.2970 C.3     3  VAL3        0.0019
      8  N         18.8380  -38.3130   40.4680 N.3     6  GLY6       -0.1210
      9  CA        19.8570  -37.6840   39.6540 C.3     6  GLY6        0.1956
     10  C         19.8830  -38.2820   38.2630 C.2     6  GLY6        0.2611
     11  O         19.8470  -37.5590   37.2690 O.2     6  GLY6       -0.2717
     12  N         19.9510  -39.6060   38.1970 N.am    7  LYS7       -0.1979
     13  CA        19.9720  -40.3150   36.9260 C.3     7  LYS7        0.1596
     14  C         18.8010  -39.8960   36.0570 C.2     7  LYS7        0.2287
     15  O         18.9870  -39.4640   34.9240 O.2     7  LYS7       -0.2864
     16  CB        19.9230  -41.8230   37.1580 C.3     7  LYS7        0.0298
     17  CG        21.2800  -42.4500   37.4500 C.3     7  LYS7        0.0038
     18  CD        21.1280  -43.8910   37.9290 C.3     7  LYS7        0.0206
     19  CE        20.3950  -44.7480   36.9160 C.3     7  LYS7        0.1093
     20  NZ        20.0990  -46.1070   37.4630 N.3     7  LYS7       -0.1314
     21  N         19.4120  -36.1260   34.4780 N.3    10  ILE10      -0.1231
     22  CA        20.3530  -35.8830   33.3740 C.3    10  ILE10       0.1692
     23  C         19.7520  -36.5600   32.1650 C.2    10  ILE10       0.2592
     24  O         19.8010  -36.0370   31.0640 O.2    10  ILE10      -0.2718
     25  CB        21.7560  -36.5450   33.5270 C.3    10  ILE10       0.0266
     26  CG1       21.9340  -37.1330   34.9130 C.3    10  ILE10       0.0019
     27  CG2       22.8410  -35.5730   33.1390 C.3    10  ILE10       0.0020
     28  CD1       21.7590  -38.6220   34.9010 C.3    10  ILE10       0.0001
     29  N         19.2060  -37.7480   32.3950 N.am   11  GLN11      -0.1966
     30  CA        18.5910  -38.5580   31.3570 C.3    11  GLN11       0.1733
     31  C         17.4550  -37.8410   30.6460 C.2    11  GLN11       0.2616
     32  O         17.4070  -37.7980   29.4220 O.2    11  GLN11      -0.2715
     33  CB        18.0830  -39.8660   31.9660 C.3    11  GLN11       0.0408
     34  CG        19.1490  -40.9550   32.0490 C.3    11  GLN11       0.0908
     35  CD        18.7640  -42.1100   32.9590 C.2    11  GLN11       0.2608
     36  OE1       17.5870  -42.4640   33.0830 O.2    11  GLN11      -0.2717
     37  NE2       19.7650  -42.7130   33.5940 N.am   11  GLN11      -0.0878
     38  N         16.5490  -37.2630   31.4190 N.am   12  GLU12      -0.1963
     39  CA        15.4070  -36.5680   30.8510 C.3    12  GLU12       0.1733
     40  C         15.6900  -35.1580   30.3450 C.2    12  GLU12       0.2617
     41  O         15.0160  -34.6880   29.4250 O.2    12  GLU12      -0.2715
     42  CB        14.2820  -36.5050   31.8820 C.3    12  GLU12       0.0429
     43  CG        13.6970  -37.8520   32.2380 C.3    12  GLU12       0.1163
     44  CD        13.1280  -38.5610   31.0270 C.2    12  GLU12       0.3649
     45  OE1       12.4140  -37.9030   30.2390 O.co2  12  GLU12      -0.2457
     46  OE2       13.3870  -39.7690   30.8690 O.co2  12  GLU12      -0.2457
     47  N         16.6830  -34.4890   30.9290 N.am   13  THR13      -0.1937
     48  CA        16.9890  -33.1070   30.5430 C.3    13  THR13       0.2028
     49  C         18.3200  -32.8300   29.8510 C.2    13  THR13       0.2642
     50  O         18.4580  -31.8210   29.1540 O.2    13  THR13      -0.2714
     51  CB        16.9320  -32.1720   31.7640 C.3    13  THR13       0.1808
     52  OG1       17.9500  -32.5530   32.7080 O.3    13  THR13      -0.2208
     53  CG2       15.5550  -32.2480   32.4250 C.3    13  THR13       0.0379
     54  N         19.2990  -33.7050   30.0460 N.am   14  GLY14      -0.1954
     55  CA        20.5930  -33.4640   29.4480 C.3    14  GLY14       0.1869
     56  C         21.4380  -32.6410   30.3820 C.2    14  GLY14       0.2309
     57  O         22.6340  -32.4860   30.1600 O.2    14  GLY14      -0.2863
     58  N         16.8080  -46.7270   47.9350 N.3    63  ARG63      -0.1245
     59  CA        17.2900  -47.0650   46.5960 C.3    63  ARG63       0.1563
     60  C         16.2080  -47.9030   45.9310 C.2    63  ARG63       0.2260
     61  O         15.5610  -48.7130   46.5900 O.2    63  ARG63      -0.2867
     62  CB        18.5880  -47.8930   46.6550 C.3    63  ARG63       0.0307
     63  CG        19.8830  -47.1150   46.9600 C.3    63  ARG63       0.0489
     64  CD        20.2860  -46.1660   45.8090 C.3    63  ARG63       0.2205
     65  NE        21.2880  -46.6730   44.8520 N.pl3  63  ARG63      -0.0865
     66  CZ        21.4370  -47.9440   44.4660 C.cat  63  ARG63       0.5346
     67  NH1       20.6600  -48.9050   44.9580 N.pl3  63  ARG63       0.1354
     68  NH2       22.3510  -48.2480   43.5450 N.pl3  63  ARG63       0.1354
     69  N         11.7440  -31.6280   32.1340 N.3    97  ARG97      -0.1245
     70  CA        11.9420  -31.7380   30.7020 C.3    97  ARG97       0.1563
     71  C         10.8800  -30.9630   29.9260 C.2    97  ARG97       0.2260
     72  O         11.2110  -30.1690   29.0450 O.2    97  ARG97      -0.2867
     73  CB        11.9250  -33.2090   30.2800 C.3    97  ARG97       0.0307
     74  CG        11.6710  -33.4210   28.8040 C.3    97  ARG97       0.0489
     75  CD        12.0530  -34.8180   28.3790 C.3    97  ARG97       0.2205
     76  NE        11.2860  -35.8720   29.0240 N.pl3  97  ARG97      -0.0865
     77  CZ        10.0100  -36.1350   28.7690 C.cat  97  ARG97       0.5346
     78  NH1        9.3430  -35.4120   27.8830 N.pl3  97  ARG97       0.1354
     79  NH2        9.4130  -37.1490   29.3790 N.pl3  97  ARG97       0.1354
     80  N         11.7720  -27.3360   29.9420 N.3   100  LEU100     -0.1231
     81  CA        13.0930  -26.8560   29.5350 C.3   100  LEU100      0.1693
     82  C         12.9760  -25.6270   28.6340 C.2   100  LEU100      0.2592
     83  O         13.9080  -24.8280   28.5320 O.2   100  LEU100     -0.2718
     84  CB        13.8660  -27.9640   28.8030 C.3   100  LEU100      0.0284
     85  CG        14.5610  -28.9910   29.7040 C.3   100  LEU100      0.0019
     86  CD1       15.0700  -30.1530   28.8930 C.3   100  LEU100      0.0001
     87  CD2       15.7120  -28.3120   30.4390 C.3   100  LEU100      0.0001
     88  N         11.8210  -25.4790   27.9940 N.am  101  ASN101     -0.1974
     89  CA        11.5620  -24.3560   27.0990 C.3   101  ASN101      0.1688
     90  C         11.6370  -22.9840   27.7770 C.2   101  ASN101      0.2292
     91  O         11.8680  -21.9770   27.1160 O.2   101  ASN101     -0.2864
     92  CB        10.1940  -24.5340   26.4320 C.3   101  ASN101      0.1181
     93  CG         9.0710  -24.7190   27.4410 C.2   101  ASN101      0.2629
     94  OD1        9.2390  -25.3990   28.4560 O.2   101  ASN101     -0.2716
     95  ND2        7.9120  -24.1290   27.1580 N.am  101  ASN101     -0.0877
     96  N         18.7890  -19.7290   32.6490 N.3   105  LYS105     -0.1245
     97  CA        20.1730  -19.8480   33.1100 C.3   105  LYS105      0.1561
     98  C         20.4380  -18.9830   34.3360 C.2   105  LYS105      0.2260
     99  O         21.1480  -19.3850   35.2490 O.2   105  LYS105     -0.2867
    100  CB        21.1540  -19.4250   32.0060 C.3   105  LYS105      0.0271
    101  CG        21.8750  -20.5480   31.2520 C.3   105  LYS105      0.0035
    102  CD        20.9400  -21.3090   30.3430 C.3   105  LYS105      0.0206
    103  CE        21.5840  -21.6330   28.9850 C.3   105  LYS105      0.1093
    104  NZ        22.7290  -22.5800   29.0530 N.3   105  LYS105     -0.1314
@<TRIPOS>BOND
     1    92    89    1
     2    92    93    1
     3    89    90    1
     4    89    88    1
     5    91    90    2
     6    95    93   am
     7    93    94    2
     8    78    77    1
     9    88    82   am
    10    75    74    1
    11    75    76    1
    12    83    82    2
    13    82    81    1
    14    77    76    2
    15    77    79    1
    16    84    81    1
    17    84    85    1
    18    74    73    1
    19    86    85    1
    20   103   104    1
    21   103   102    1
    22    72    71    2
    23    50    49    2
    24    32    31    2
    25    41    40    2
    26    55    54    1
    27    55    56    1
    28    81    80    1
    29    85    87    1
    30    49    54   am
    31    49    48    1
    32    71    70    1
    33    57    56    2
    34    45    44   ar
    35    73    70    1
    36   102   101    1
    37    40    39    1
    38    40    47   am
    39    48    47    1
    40    48    51    1
    41    31    30    1
    42    31    38   am
    43    70    69    1
    44    39    38    1
    45    39    42    1
    46    46    44   ar
    47    44    43    1
    48    24    23    2
    49   101   100    1
    50    30    33    1
    51    30    29    1
    52    51    53    1
    53    51    52    1
    54    42    43    1
    55    33    34    1
    56   100    97    1
    57    34    35    1
    58    23    29   am
    59    23    22    1
    60    96    97    1
    61    35    36    2
    62    35    37   am
    63    97    98    1
    64    27    25    1
    65    22    25    1
    66    22    21    1
    67    25    26    1
    68    98    99    2
    69    28    26    1
    70    15    14    2
    71    14    13    1
    72    19    20    1
    73    19    18    1
    74    13    16    1
    75    13    12    1
    76    16    17    1
    77    11    10    2
    78    17    18    1
    79    12    10   am
    80    10     9    1
    81     9     8    1
    82     4     3    2
    83     3     2    1
    84     6     5    1
    85     2     5    1
    86     2     1    1
    87     5     7    1
    88    68    66    1
    89    66    65    2
    90    66    67    1
    91    65    64    1
    92    64    63    1
    93    60    61    2
    94    60    59    1
    95    59    62    1
    96    59    58    1
    97    62    63    1
