@<TRIPOS>MOLECULE
tmp/3bjwG00.pdb
 126 120 0 0 0
SMALL
GASTEIGER

@<TRIPOS>ATOM
      1  N         26.7520  -36.8630   -2.2500 N.3     2  VAL2       -0.1231
      2  CA        26.9620  -36.4030   -0.8880 C.3     2  VAL2        0.1692
      3  C         26.9770  -34.8650   -0.8960 C.2     2  VAL2        0.2592
      4  O         26.4700  -34.2170    0.0240 O.2     2  VAL2       -0.2718
      5  CB        28.2770  -37.0130   -0.3300 C.3     2  VAL2        0.0266
      6  CG1       29.3240  -35.9540   -0.1270 C.3     2  VAL2        0.0020
      7  CG2       27.9870  -37.7710    0.9650 C.3     2  VAL2        0.0020
      8  N         27.5280  -34.2970   -1.9670 N.am    3  VAL3       -0.1966
      9  CA        27.5960  -32.8490   -2.1550 C.3     3  VAL3        0.1727
     10  C         26.1960  -32.2990   -2.4280 C.2     3  VAL3        0.2616
     11  O         25.7820  -31.3000   -1.8380 O.2     3  VAL3       -0.2715
     12  CB        28.5060  -32.4980   -3.3570 C.3     3  VAL3        0.0290
     13  CG1       28.3350  -31.0410   -3.7470 C.3     3  VAL3        0.0023
     14  CG2       29.9600  -32.7880   -3.0130 C.3     3  VAL3        0.0023
     15  N         25.4760  -32.9600   -3.3350 N.am    4  GLU4       -0.1963
     16  CA        24.1180  -32.5620   -3.7060 C.3     4  GLU4        0.1733
     17  C         23.1640  -32.6370   -2.5160 C.2     4  GLU4        0.2616
     18  O         22.2400  -31.8300   -2.3940 O.2     4  GLU4       -0.2715
     19  CB        23.5920  -33.4620   -4.8280 C.3     4  GLU4        0.0429
     20  CG        24.2130  -33.2080   -6.1860 C.3     4  GLU4        0.1163
     21  CD        25.6690  -33.5990   -6.2490 C.2     4  GLU4        0.3649
     22  OE1       25.9850  -34.7870   -6.0390 O.co2   4  GLU4       -0.2457
     23  OE2       26.5010  -32.7150   -6.5170 O.co2   4  GLU4       -0.2457
     24  N         23.3880  -33.6160   -1.6460 N.am    5  LEU5       -0.1963
     25  CA        22.5540  -33.7870   -0.4630 C.3     5  LEU5        0.1728
     26  C         22.7990  -32.6220    0.4910 C.2     5  LEU5        0.2617
     27  O         21.8590  -32.0140    1.0100 O.2     5  LEU5       -0.2715
     28  CB        22.8880  -35.1140    0.2350 C.3     5  LEU5        0.0311
     29  CG        22.1730  -35.3900    1.5610 C.3     5  LEU5        0.0022
     30  CD1       20.6640  -35.2250    1.3900 C.3     5  LEU5        0.0001
     31  CD2       22.5110  -36.7920    2.0430 C.3     5  LEU5        0.0001
     32  N         24.0750  -32.3140    0.7030 N.am    6  GLY6       -0.1940
     33  CA        24.4380  -31.2310    1.5930 C.3     6  GLY6        0.2014
     34  C         23.8050  -29.9170    1.1910 C.2     6  GLY6        0.2638
     35  O         23.3320  -29.1710    2.0530 O.2     6  GLY6       -0.2714
     36  N         23.8110  -29.6310   -0.1110 N.am    7  LYS7       -0.1977
     37  CA        23.2100  -28.4020   -0.6280 C.3     7  LYS7        0.1596
     38  C         21.7220  -28.4490   -0.2950 C.2     7  LYS7        0.2287
     39  O         21.1280  -27.4500    0.1160 O.2     7  LYS7       -0.2864
     40  CB        23.3670  -28.2960   -2.1510 C.3     7  LYS7        0.0298
     41  CG        24.7890  -28.1600   -2.6920 C.3     7  LYS7        0.0038
     42  CD        24.7310  -28.0570   -4.2220 C.3     7  LYS7        0.0206
     43  CE        26.0460  -28.4210   -4.8960 C.3     7  LYS7        0.1093
     44  NZ        27.0580  -27.3250   -4.9400 N.3     7  LYS7       -0.1314
     45  N         20.3020  -29.9490    2.1440 N.3     9  ILE9       -0.1231
     46  CA        20.1070  -29.7490    3.5700 C.3     9  ILE9        0.1692
     47  C         20.1920  -28.2690    3.9480 C.2     9  ILE9        0.2591
     48  O         19.3880  -27.7690    4.7390 O.2     9  ILE9       -0.2718
     49  CB        21.1330  -30.5720    4.3710 C.3     9  ILE9        0.0266
     50  CG1       20.7990  -32.0630    4.2270 C.3     9  ILE9        0.0019
     51  CG2       21.1200  -30.1540    5.8320 C.3     9  ILE9        0.0020
     52  CD1       21.7060  -32.9880    4.9930 C.3     9  ILE9        0.0001
     53  N         21.1610  -27.5660    3.3780 N.am   10  ILE10      -0.1980
     54  CA        21.3150  -26.1490    3.6570 C.3    10  ILE10       0.1595
     55  C         20.0810  -25.3790    3.1750 C.2    10  ILE10       0.2287
     56  O         19.5690  -24.5130    3.8750 O.2    10  ILE10      -0.2864
     57  CB        22.5870  -25.6010    2.9740 C.3    10  ILE10       0.0276
     58  CG1       23.8240  -26.1950    3.6540 C.3    10  ILE10       0.0022
     59  CG2       22.6070  -24.0800    3.0460 C.3    10  ILE10       0.0022
     60  CD1       25.1130  -25.9730    2.8960 C.3    10  ILE10       0.0001
     61  N         25.2600  -29.1370    6.9280 N.3    17  PRO17      -0.2116
     62  CA        25.5150  -30.5050    7.3820 C.3    17  PRO17       0.1372
     63  C         26.5100  -30.5050    8.5420 C.2    17  PRO17       0.2244
     64  O         26.2230  -31.0610    9.5980 O.2    17  PRO17      -0.2868
     65  CB        26.0500  -31.1820    6.1300 C.3    17  PRO17       0.0268
     66  CG        25.2740  -30.4990    5.0550 C.3    17  PRO17       0.0207
     67  CD        25.3460  -29.0530    5.4600 C.3    17  PRO17       0.0892
     68  N         24.3450  -31.7980   11.2580 N.3    21  TYR21      -0.1227
     69  CA        23.8580  -33.1650   11.0870 C.3    21  TYR21       0.1736
     70  C         24.9020  -34.2680   10.9440 C.2    21  TYR21       0.2596
     71  O         24.5790  -35.4430   11.1050 O.2    21  TYR21      -0.2718
     72  CB        22.9090  -33.2410    9.8870 C.3    21  TYR21       0.0548
     73  CG        21.6150  -32.4830   10.0690 C.ar   21  TYR21      -0.0200
     74  CD1       21.4660  -31.1830    9.5900 C.ar   21  TYR21      -0.0009
     75  CD2       20.5380  -33.0690   10.7260 C.ar   21  TYR21      -0.0009
     76  CE1       20.2660  -30.4850    9.7630 C.ar   21  TYR21       0.0417
     77  CE2       19.3410  -32.3830   10.9050 C.ar   21  TYR21       0.0417
     78  CZ        19.2110  -31.0940   10.4250 C.ar   21  TYR21       0.1957
     79  OH        18.0260  -30.4260   10.6260 O.3    21  TYR21      -0.2866
     80  N         26.1440  -33.9100   10.6470 N.am   22  THR22      -0.1953
     81  CA        27.1790  -34.9280   10.4770 C.3    22  THR22       0.1897
     82  C         27.4320  -35.8140   11.7040 C.2    22  THR22       0.2313
     83  O         28.0660  -36.8640   11.5930 O.2    22  THR22      -0.2863
     84  CB        28.5030  -34.2880   10.0230 C.3    22  THR22       0.1794
     85  OG1       28.7950  -33.1540   10.8490 O.3    22  THR22      -0.2208
     86  CG2       28.4000  -33.8360    8.5700 C.3    22  THR22       0.0378
     87  N         24.6850  -38.8200    9.2930 N.3    29  GLY29      -0.1225
     88  CA        26.0800  -38.8000    8.9030 C.3    29  GLY29       0.1811
     89  C         26.7770  -40.1270    9.1400 C.2    29  GLY29       0.2280
     90  O         28.0080  -40.2030    9.0620 O.2    29  GLY29      -0.2866
     91  N         26.6760  -42.2610   -2.4840 N.3    60  LYS60      -0.1231
     92  CA        27.5470  -41.2600   -1.8610 C.3    60  LYS60       0.1693
     93  C         28.4020  -40.4430   -2.8300 C.2    60  LYS60       0.2592
     94  O         28.6720  -39.2680   -2.5840 O.2    60  LYS60      -0.2718
     95  CB        28.4780  -41.9190   -0.8460 C.3    60  LYS60       0.0285
     96  CG        27.8260  -42.3630    0.4470 C.3    60  LYS60       0.0035
     97  CD        28.8660  -43.0660    1.3130 C.3    60  LYS60       0.0206
     98  CE        28.2620  -43.6540    2.5760 C.3    60  LYS60       0.1093
     99  NZ        29.2770  -44.4460    3.3250 N.3    60  LYS60      -0.1314
    100  N         28.8220  -41.0610   -3.9280 N.am   61  THR61      -0.1953
    101  CA        29.6790  -40.3870   -4.9020 C.3    61  THR61       0.1897
    102  C         29.0370  -39.9940   -6.2330 C.2    61  THR61       0.2313
    103  O         29.4710  -39.0330   -6.8730 O.2    61  THR61      -0.2863
    104  CB        30.8950  -41.2560   -5.2270 C.3    61  THR61       0.1794
    105  OG1       30.4450  -42.4970   -5.7820 O.3    61  THR61      -0.2208
    106  CG2       31.7060  -41.5340   -3.9630 C.3    61  THR61       0.0378
    107  N         27.2680  -38.1570   -8.7090 N.3    63  ARG63      -0.1245
    108  CA        26.7650  -36.7910   -8.8660 C.3    63  ARG63       0.1563
    109  C         25.4980  -36.7280   -9.7180 C.2    63  ARG63       0.2260
    110  O         25.3620  -37.4580  -10.7020 O.2    63  ARG63      -0.2867
    111  CB        27.8300  -35.9030   -9.5300 C.3    63  ARG63       0.0307
    112  CG        28.8510  -35.2710   -8.5950 C.3    63  ARG63       0.0489
    113  CD        29.5660  -36.2930   -7.7000 C.3    63  ARG63       0.2205
    114  NE        30.6010  -35.6570   -6.8820 N.pl3  63  ARG63      -0.0865
    115  CZ        30.3780  -34.6560   -6.0340 C.cat  63  ARG63       0.5346
    116  NH1       29.1540  -34.1700   -5.8750 N.pl3  63  ARG63       0.1354
    117  NH2       31.3860  -34.1140   -5.3660 N.pl3  63  ARG63       0.1354
    118  N         21.9360  -33.8470  -10.8950 N.3    65  LYS65      -0.1245
    119  CA        21.4200  -32.4890  -10.9610 C.3    65  LYS65       0.1561
    120  C         20.0070  -32.4490  -10.4050 C.2    65  LYS65       0.2260
    121  O         19.3390  -33.4720  -10.3110 O.2    65  LYS65      -0.2867
    122  CB        21.3610  -31.9960  -12.4110 C.3    65  LYS65       0.0271
    123  CG        22.6890  -31.8300  -13.1220 C.3    65  LYS65       0.0035
    124  CD        22.4580  -31.2250  -14.5090 C.3    65  LYS65       0.0206
    125  CE        23.7500  -30.7390  -15.1480 C.3    65  LYS65       0.1093
    126  NZ        24.7370  -31.8340  -15.3690 N.3    65  LYS65      -0.1314
@<TRIPOS>BOND
     1   126   125    1
     2   125   124    1
     3   124   123    1
     4   123   122    1
     5   122   119    1
     6   119   118    1
     7   119   120    1
     8   110   109    2
     9   120   121    2
    10   109   108    1
    11   111   108    1
    12   111   112    1
    13   108   107    1
    14   112   113    1
    15   113   114    1
    16   114   115    2
    17   103   102    2
    18    23    21   ar
    19    21    20    1
    20    21    22   ar
    21   102   101    1
    22    20    19    1
    23   115   116    1
    24   115   117    1
    25   105   104    1
    26   104   101    1
    27   104   106    1
    28    44    43    1
    29   101   100    1
    30    43    42    1
    31    19    16    1
    32    42    41    1
    33   100    93   am
    34    13    12    1
    35    16    15    1
    36    16    17    1
    37    12    14    1
    38    12     9    1
    39    15    10   am
    40    93    94    2
    41    93    92    1
    42    41    40    1
    43    17    18    2
    44    17    24   am
    45    91    92    1
    46    10     9    1
    47    10    11    2
    48     1     2    1
    49     9     8    1
    50    40    37    1
    51     8     3   am
    52    92    95    1
    53    24    25    1
    54     3     2    1
    55     3     4    2
    56     2     5    1
    57    95    96    1
    58    37    38    1
    59    37    36    1
    60    25    28    1
    61    25    26    1
    62     5     6    1
    63     5     7    1
    64    38    39    2
    65    36    34   am
    66    28    29    1
    67    96    97    1
    68    26    32   am
    69    26    27    2
    70    32    33    1
    71    34    33    1
    72    34    35    2
    73    97    98    1
    74    30    29    1
    75    29    31    1
    76    45    46    1
    77    98    99    1
    78    60    58    1
    79    57    59    1
    80    57    58    1
    81    57    54    1
    82    55    54    1
    83    55    56    2
    84    53    54    1
    85    53    47   am
    86    46    47    1
    87    46    49    1
    88    47    48    2
    89    50    49    1
    90    50    52    1
    91    49    51    1
    92    66    67    1
    93    66    65    1
    94    67    61    1
    95    65    62    1
    96    61    62    1
    97    62    63    1
    98    63    64    2
    99    86    84    1
   100    88    89    1
   101    88    87    1
   102    90    89    2
   103    74    76   ar
   104    74    73   ar
   105    76    78   ar
   106    72    73    1
   107    72    69    1
   108    84    81    1
   109    84    85    1
   110    73    75   ar
   111    78    79    1
   112    78    77   ar
   113    81    80    1
   114    81    82    1
   115    80    70   am
   116    75    77   ar
   117    70    69    1
   118    70    71    2
   119    69    68    1
   120    83    82    2
