@<TRIPOS>MOLECULE
tmp/3bk2A00.pdb
 160 158 0 0 0
SMALL
GASTEIGER

@<TRIPOS>ATOM
      1  N          9.9100   28.2850   32.5160 N.3    14  ILE14      -0.1231
      2  CA         9.5680   29.4520   33.3090 C.3    14  ILE14       0.1692
      3  C          9.2920   30.5160   32.2550 C.2    14  ILE14       0.2592
      4  O         10.2240   31.0410   31.6410 O.2    14  ILE14      -0.2718
      5  CB        10.7420   29.8950   34.2030 C.3    14  ILE14       0.0266
      6  CG1       10.9890   28.8440   35.2870 C.3    14  ILE14       0.0019
      7  CG2       10.4400   31.2570   34.8180 C.3    14  ILE14       0.0020
      8  CD1       12.2250   29.1080   36.1290 C.3    14  ILE14       0.0001
      9  N          8.0110   30.8030   32.0230 N.am   15  GLY15      -0.1957
     10  CA         7.6380   31.7820   31.0150 C.3    15  GLY15       0.1869
     11  C          6.3700   31.4090   30.2510 C.2    15  GLY15       0.2309
     12  O          5.9040   30.2740   30.3250 O.2    15  GLY15      -0.2863
     13  N         10.5690   35.6150   27.2390 N.3    36  PHE36      -0.1241
     14  CA        11.6440   36.3780   26.6350 C.3    36  PHE36       0.1605
     15  C         12.5770   35.3760   25.9460 C.2    36  PHE36       0.2264
     16  O         12.6620   34.2150   26.3510 O.2    36  PHE36      -0.2867
     17  CB        12.3830   37.1870   27.6980 C.3    36  PHE36       0.0534
     18  CG        11.5880   38.3400   28.2300 C.ar   36  PHE36      -0.0203
     19  CD1       11.2050   39.3770   27.3820 C.ar   36  PHE36      -0.0042
     20  CD2       11.2050   38.3860   29.5700 C.ar   36  PHE36      -0.0042
     21  CE1       10.4530   40.4450   27.8520 C.ar   36  PHE36      -0.0003
     22  CE2       10.4500   39.4540   30.0540 C.ar   36  PHE36      -0.0003
     23  CZ        10.0730   40.4860   29.1930 C.ar   36  PHE36      -0.0000
     24  N          2.9610   40.5130   35.5630 N.3    69  HIS69      -0.1226
     25  CA         4.2730   40.1490   35.0200 C.3    69  HIS69       0.1752
     26  C          4.1270   39.7670   33.5420 C.2    69  HIS69       0.2596
     27  O          3.1340   39.1440   33.1420 O.2    69  HIS69      -0.2718
     28  CB         4.8680   38.9790   35.8070 C.3    69  HIS69       0.0759
     29  CG         5.6610   39.4050   37.0020 C.ar   69  HIS69       0.0818
     30  ND1        6.0510   38.5280   37.9890 N.ar   69  HIS69      -0.2268
     31  CD2        6.1710   40.6120   37.3460 C.ar   69  HIS69       0.1154
     32  CE1        6.7720   39.1740   38.8890 C.ar   69  HIS69       0.1986
     33  NE2        6.8600   40.4400   38.5220 N.ar   69  HIS69      -0.2212
     34  N          5.1180   40.1370   32.7380 N.am   70  GLU70      -0.1965
     35  CA         5.0800   39.8710   31.3050 C.3    70  GLU70       0.1733
     36  C          4.8190   38.4120   30.9670 C.2    70  GLU70       0.2616
     37  O          4.1660   38.1170   29.9590 O.2    70  GLU70      -0.2715
     38  CB         6.3800   40.3460   30.6290 C.3    70  GLU70       0.0429
     39  CG         6.6420   41.8520   30.7800 C.3    70  GLU70       0.1163
     40  CD         7.4480   42.2010   32.0350 C.2    70  GLU70       0.3649
     41  OE1        7.3260   41.4700   33.0510 O.co2  70  GLU70      -0.2457
     42  OE2        8.2010   43.2120   32.0060 O.co2  70  GLU70      -0.2457
     43  N          5.3090   37.4910   31.7970 N.am   71  ASP71      -0.1971
     44  CA         5.0750   36.0800   31.5140 C.3    71  ASP71       0.1709
     45  C          3.6930   35.6210   31.9790 C.2    71  ASP71       0.2293
     46  O          3.4360   34.4220   32.1250 O.2    71  ASP71      -0.2864
     47  CB         6.1800   35.2010   32.1160 C.3    71  ASP71       0.1436
     48  CG         6.3020   35.3500   33.6130 C.2    71  ASP71       0.3671
     49  OD1        6.4200   36.4970   34.0820 O.co2  71  ASP71      -0.2456
     50  OD2        6.2930   34.3150   34.3180 O.co2  71  ASP71      -0.2456
     51  N          6.7600   39.4260   43.3400 N.3   141  SER141     -0.1217
     52  CA         7.6240   40.5180   42.9080 C.3   141  SER141      0.1889
     53  C          6.8900   41.6670   42.2130 C.2   141  SER141      0.2288
     54  O          7.5110   42.5030   41.5450 O.2   141  SER141     -0.2866
     55  CB         8.7470   39.9790   42.0100 C.3   141  SER141      0.2089
     56  OG         8.3090   38.8730   41.2380 O.3   141  SER141     -0.2183
     57  N          9.3740   27.1210   40.9110 N.3   196  THR196     -0.1203
     58  CA        10.5960   27.8440   40.5970 C.3   196  THR196      0.1994
     59  C         11.8110   27.5450   41.4880 C.2   196  THR196      0.2617
     60  O         12.8820   27.2130   40.9770 O.2   196  THR196     -0.2717
     61  CB        10.3400   29.3560   40.6020 C.3   196  THR196      0.1784
     62  OG1        9.2200   29.6410   39.7530 O.3   196  THR196     -0.2211
     63  CG2       11.5690   30.1090   40.0880 C.3   196  THR196      0.0376
     64  N         11.6530   27.6560   42.8060 N.am  197  ASN197     -0.1974
     65  CA        12.7650   27.4130   43.7340 C.3   197  ASN197      0.1688
     66  C         12.6060   26.1460   44.5580 C.2   197  ASN197      0.2292
     67  O         13.0470   26.0910   45.7070 O.2   197  ASN197     -0.2864
     68  CB        12.9150   28.5920   44.6870 C.3   197  ASN197      0.1181
     69  CG        13.4200   29.8360   43.9990 C.2   197  ASN197      0.2629
     70  OD1       13.2090   30.9460   44.4760 O.2   197  ASN197     -0.2716
     71  ND2       14.0970   29.6590   42.8790 N.am  197  ASN197     -0.0877
     72  N         13.4410   44.2330   35.7890 N.3   229  PHE229     -0.1241
     73  CA        12.3060   44.1390   34.8780 C.3   229  PHE229      0.1605
     74  C         11.3960   45.3320   35.1170 C.2   229  PHE229      0.2264
     75  O         11.2680   45.8150   36.2490 O.2   229  PHE229     -0.2867
     76  CB        11.5230   42.8350   35.0780 C.3   229  PHE229      0.0534
     77  CG        12.2420   41.6130   34.5820 C.ar  229  PHE229     -0.0203
     78  CD1       13.1980   40.9800   35.3720 C.ar  229  PHE229     -0.0042
     79  CD2       11.9790   41.1050   33.3130 C.ar  229  PHE229     -0.0042
     80  CE1       13.8820   39.8600   34.9050 C.ar  229  PHE229     -0.0003
     81  CE2       12.6560   39.9880   32.8360 C.ar  229  PHE229     -0.0003
     82  CZ        13.6110   39.3630   33.6320 C.ar  229  PHE229     -0.0000
     83  N          8.7300   44.9590   37.8420 N.3   232  HIS232     -0.1241
     84  CA         9.1290   44.6830   39.2240 C.3   232  HIS232      0.1621
     85  C          8.9110   45.9520   40.0380 C.2   232  HIS232      0.2264
     86  O          9.8560   46.5880   40.5060 O.2   232  HIS232     -0.2867
     87  CB        10.6000   44.2520   39.2800 C.3   232  HIS232      0.0745
     88  CG        10.8170   42.8060   38.9470 C.ar  232  HIS232      0.0817
     89  ND1       10.0460   42.1290   38.0260 N.ar  232  HIS232     -0.2268
     90  CD2       11.7150   41.9070   39.4180 C.ar  232  HIS232      0.1154
     91  CE1       10.4570   40.8750   37.9480 C.ar  232  HIS232      0.1986
     92  NE2       11.4690   40.7140   38.7810 N.ar  232  HIS232     -0.2212
     93  N         17.3570   38.4720   38.1130 N.3   325  SER325     -0.1203
     94  CA        18.0960   37.2800   37.7200 C.3   325  SER325      0.2005
     95  C         17.9430   37.1100   36.2070 C.2   325  SER325      0.2461
     96  O         16.9500   37.5380   35.6170 O.2   325  SER325     -0.2732
     97  CB        17.5690   36.0480   38.4620 C.3   325  SER325      0.2103
     98  OG        16.1960   35.8430   38.1930 O.3   325  SER325     -0.2182
     99  N         18.9300   36.4800   35.5620 N.am  326  PRO326     -0.2717
    100  CA        18.8750   36.2810   34.1110 C.3   326  PRO326      0.1535
    101  C         17.7420   35.3830   33.6380 C.2   326  PRO326      0.2598
    102  O         17.3010   34.4930   34.3510 O.2   326  PRO326     -0.2715
    103  CB        20.2420   35.6740   33.7900 C.3   326  PRO326      0.0310
    104  CG        21.1190   36.1330   34.9300 C.3   326  PRO326      0.0237
    105  CD        20.2050   35.9900   36.1140 C.3   326  PRO326      0.0939
    106  N         17.2760   35.6380   32.4240 N.am  327  ILE327     -0.1964
    107  CA        16.2390   34.8270   31.8010 C.3   327  ILE327      0.1712
    108  C         16.8490   33.4340   31.6320 C.2   327  ILE327      0.2458
    109  O         18.0350   33.3120   31.3350 O.2   327  ILE327     -0.2730
    110  CB        15.8910   35.3780   30.3950 C.3   327  ILE327      0.0289
    111  CG1       15.2180   36.7450   30.5280 C.3   327  ILE327      0.0022
    112  CG2       14.9970   34.4020   29.6420 C.3   327  ILE327      0.0023
    113  CD1       13.9570   36.7200   31.3460 C.3   327  ILE327      0.0001
    114  N         16.0570   32.3660   31.8290 N.am  328  PRO328     -0.2727
    115  CA        16.6360   31.0270   31.6620 C.3   328  PRO328      0.1402
    116  C         17.3350   30.9490   30.3090 C.2   328  PRO328      0.2269
    117  O         16.7080   31.1780   29.2760 O.2   328  PRO328     -0.2865
    118  CB        15.4140   30.1140   31.7200 C.3   328  PRO328      0.0296
    119  CG        14.4990   30.8460   32.6550 C.3   328  PRO328      0.0237
    120  CD        14.6290   32.2820   32.1870 C.3   328  PRO328      0.0939
    121  N         19.4600   41.3890   44.9310 N.3   357  HIS357     -0.1241
    122  CA        18.2540   40.8180   44.3410 C.3   357  HIS357      0.1621
    123  C         17.7590   39.6250   45.1450 C.2   357  HIS357      0.2264
    124  O         18.5410   38.8900   45.7450 O.2   357  HIS357     -0.2867
    125  CB        18.5050   40.3780   42.8920 C.3   357  HIS357      0.0745
    126  CG        17.3310   39.6890   42.2580 C.ar  357  HIS357      0.0817
    127  ND1       16.1200   40.3160   42.0470 N.ar  357  HIS357     -0.2268
    128  CD2       17.1740   38.4170   41.8180 C.ar  357  HIS357      0.1154
    129  CE1       15.2700   39.4590   41.5080 C.ar  357  HIS357      0.1986
    130  NE2       15.8850   38.3010   41.3580 N.ar  357  HIS357     -0.2212
    131  N         14.6580   36.4740   44.8500 N.3   359  SER359     -0.1202
    132  CA        13.6620   35.8090   44.0220 C.3   359  SER359      0.2020
    133  C         12.2550   36.1900   44.4750 C.2   359  SER359      0.2619
    134  O         12.0450   36.5310   45.6320 O.2   359  SER359     -0.2717
    135  CB        13.8410   34.2950   44.1280 C.3   359  SER359      0.2103
    136  OG        12.8740   33.6110   43.3570 O.3   359  SER359     -0.2182
    137  N         11.2960   36.1430   43.5560 N.am  360  GLY360     -0.1942
    138  CA         9.9300   36.4650   43.9180 C.3   360  GLY360      0.2014
    139  C          9.1710   35.1750   44.1400 C.2   360  GLY360      0.2638
    140  O          7.9390   35.1580   44.2320 O.2   360  GLY360     -0.2714
    141  N          9.9210   34.0830   44.2460 N.am  361  HIS361     -0.1973
    142  CA         9.3290   32.7610   44.4150 C.3   361  HIS361      0.1656
    143  C          9.7460   32.0560   45.6960 C.2   361  HIS361      0.2291
    144  O         10.8640   32.2320   46.1880 O.2   361  HIS361     -0.2864
    145  CB         9.6890   31.8950   43.2110 C.3   361  HIS361      0.0771
    146  CG         9.2330   32.4650   41.9040 C.ar  361  HIS361      0.0820
    147  ND1        7.9420   32.3310   41.4410 N.ar  361  HIS361     -0.2267
    148  CD2        9.8940   33.1870   40.9700 C.ar  361  HIS361      0.1154
    149  CE1        7.8270   32.9430   40.2760 C.ar  361  HIS361      0.1986
    150  NE2        8.9990   33.4710   39.9690 N.ar  361  HIS361     -0.2212
    151  N          5.2550   26.0470   36.5740 N.3   383  HIS383     -0.1241
    152  CA         6.1410   27.2130   36.6340 C.3   383  HIS383      0.1621
    153  C          7.5880   26.8540   36.9630 C.2   383  HIS383      0.2264
    154  O          8.1940   27.3970   37.8890 O.2   383  HIS383     -0.2867
    155  CB         5.6120   28.2190   37.6630 C.3   383  HIS383      0.0745
    156  CG         5.9690   29.6400   37.3570 C.ar  383  HIS383      0.0817
    157  ND1        7.2600   30.1190   37.4260 N.ar  383  HIS383     -0.2268
    158  CD2        5.2050   30.6780   36.9410 C.ar  383  HIS383      0.1154
    159  CE1        7.2770   31.3910   37.0650 C.ar  383  HIS383      0.1986
    160  NE2        6.0430   31.7540   36.7650 N.ar  383  HIS383     -0.2212
@<TRIPOS>BOND
     1    15    16    2
     2    15    14    1
     3    14    13    1
     4    14    17    1
     5    19    21   ar
     6    19    18   ar
     7    17    18    1
     8    21    23   ar
     9    18    20   ar
    10    23    22   ar
    11   117   116    2
    12    20    22   ar
    13   112   110    1
    14    37    36    2
    15    11    12    2
    16    11    10    1
    17   116   115    1
    18   110   111    1
    19   110   107    1
    20   111   113    1
    21    38    39    1
    22    38    35    1
    23    39    40    1
    24    36    35    1
    25    36    43   am
    26    10     9    1
    27    35    34    1
    28   109   108    2
    29    44    43    1
    30    44    45    1
    31    44    47    1
    32   108   107    1
    33   108   114   am
    34     4     3    2
    35   115   118    1
    36   115   114    1
    37   118   119    1
    38   107   106    1
    39   114   120    1
    40    45    46    2
    41    42    40   ar
    42     9     3   am
    43    40    41   ar
    44    47    48    1
    45   120   119    1
    46     3     2    1
    47   106   101   am
    48     1     2    1
    49    34    26   am
    50    81    79   ar
    51    81    82   ar
    52    27    26    2
    53     2     5    1
    54    79    77   ar
    55    26    25    1
    56    48    49   ar
    57    48    50   ar
    58    82    80   ar
    59   101   100    1
    60   101   102    2
    61   103   100    1
    62   103   104    1
    63   100    99    1
    64     5     7    1
    65     5     6    1
    66    77    76    1
    67    77    78   ar
    68    73    76    1
    69    73    74    1
    70    73    72    1
    71    80    78   ar
    72   104   105    1
    73    25    24    1
    74    25    28    1
    75    74    75    2
    76     6     8    1
    77    99   105    1
    78    99    95   am
    79    96    95    2
    80    28    29    1
    81    95    94    1
    82   151   152    1
    83   152   153    1
    84   152   155    1
    85   160   158   ar
    86   160   159   ar
    87   158   156   ar
    88   153   154    2
    89    29    31   ar
    90    29    30   ar
    91   159   157   ar
    92    31    33   ar
    93   156   157   ar
    94   156   155    1
    95    94    93    1
    96    94    97    1
    97    83    84    1
    98    91    89   ar
    99    91    92   ar
   100    30    32   ar
   101    89    88   ar
   102    98    97    1
   103    33    32   ar
   104    92    90   ar
   105    88    87    1
   106    88    90   ar
   107    84    87    1
   108    84    85    1
   109    62    61    1
   110   150   149   ar
   111   150   148   ar
   112    85    86    2
   113    63    61    1
   114   149   147   ar
   115    58    61    1
   116    58    57    1
   117    58    59    1
   118   148   146   ar
   119    60    59    2
   120    56    55    1
   121   130   129   ar
   122   130   128   ar
   123   147   146   ar
   124    59    64   am
   125   129   127   ar
   126    54    53    2
   127   128   126   ar
   128   146   145    1
   129    55    52    1
   130   127   126   ar
   131    53    52    1
   132   126   125    1
   133    64    65    1
   134    71    69   am
   135   125   122    1
   136    52    51    1
   137   145   142    1
   138   136   135    1
   139   137   138    1
   140   137   133   am
   141    65    66    1
   142    65    68    1
   143   138   139    1
   144    69    70    2
   145    69    68    1
   146   132   135    1
   147   132   133    1
   148   132   131    1
   149   139   140    2
   150   139   141   am
   151   141   142    1
   152   122   121    1
   153   122   123    1
   154   142   143    1
   155   133   134    2
   156    66    67    2
   157   123   124    2
   158   143   144    2
