@<TRIPOS>MOLECULE
tmp/3bk7A01.pdb
 106 105 0 0 0
SMALL
GASTEIGER

@<TRIPOS>ATOM
      1  N        -12.8790   -3.2020   -5.1860 N.3    87  TYR87      -0.1241
      2  CA       -11.8720   -4.1500   -5.6410 C.3    87  TYR87       0.1605
      3  C        -10.4340   -3.7860   -5.3190 C.2    87  TYR87       0.2264
      4  O         -9.4970   -4.3560   -5.8950 O.2    87  TYR87      -0.2867
      5  CB       -12.0080   -4.4000   -7.1440 C.3    87  TYR87       0.0534
      6  CG       -13.2590   -5.1590   -7.5240 C.ar   87  TYR87      -0.0201
      7  CD1      -14.4210   -4.4900   -7.8940 C.ar   87  TYR87      -0.0009
      8  CD2      -13.2840   -6.5470   -7.4950 C.ar   87  TYR87      -0.0009
      9  CE1      -15.5810   -5.1920   -8.2320 C.ar   87  TYR87       0.0417
     10  CE2      -14.4350   -7.2600   -7.8240 C.ar   87  TYR87       0.0417
     11  CZ       -15.5780   -6.5780   -8.1950 C.ar   87  TYR87       0.1957
     12  OH       -16.7060   -7.2830   -8.5500 O.3    87  TYR87      -0.2866
     13  N         -9.4640    1.2440   -7.0050 N.3    91  ALA91      -0.1231
     14  CA       -10.2360    0.3690   -7.8800 C.3    91  ALA91       0.1694
     15  C        -11.7260    0.7170   -7.7960 C.2    91  ALA91       0.2592
     16  O        -12.1320    1.5790   -7.0090 O.2    91  ALA91      -0.2718
     17  CB       -10.0110   -1.0900   -7.4980 C.3    91  ALA91       0.0304
     18  N        -12.5320    0.0510   -8.6160 N.am   92  PHE92      -0.1976
     19  CA       -13.9720    0.2630   -8.6330 C.3    92  PHE92       0.1639
     20  C        -14.6410   -0.1210   -7.3010 C.2    92  PHE92       0.2290
     21  O        -14.2650   -1.1080   -6.6660 O.2    92  PHE92      -0.2864
     22  CB       -14.6000   -0.5630   -9.7610 C.3    92  PHE92       0.0560
     23  CG       -16.0930   -0.6110   -9.7060 C.ar   92  PHE92      -0.0200
     24  CD1      -16.8570    0.3770  -10.3100 C.ar   92  PHE92      -0.0042
     25  CD2      -16.7380   -1.6190   -9.0000 C.ar   92  PHE92      -0.0042
     26  CE1      -18.2500    0.3610  -10.2090 C.ar   92  PHE92      -0.0003
     27  CE2      -18.1160   -1.6400   -8.8950 C.ar   92  PHE92      -0.0003
     28  CZ       -18.8770   -0.6460   -9.5010 C.ar   92  PHE92      -0.0000
     29  N        -25.7260    1.3670  -17.0830 N.3   111  PRO111     -0.2102
     30  CA       -24.5680    1.1590  -17.9640 C.3   111  PRO111      0.1504
     31  C        -23.6130    0.0960  -17.4220 C.2   111  PRO111      0.2576
     32  O        -23.5860   -0.1600  -16.2160 O.2   111  PRO111     -0.2718
     33  CB       -23.9230    2.5420  -18.0080 C.3   111  PRO111      0.0282
     34  CG       -24.2950    3.1320  -16.6770 C.3   111  PRO111      0.0208
     35  CD       -25.7400    2.7420  -16.5560 C.3   111  PRO111      0.0893
     36  N        -22.8390   -0.5340  -18.3050 N.am  112  ASN112     -0.1961
     37  CA       -21.8900   -1.5490  -17.8510 C.3   112  ASN112      0.1819
     38  C        -20.7650   -0.8990  -17.0580 C.2   112  ASN112      0.2622
     39  O        -20.5070    0.2910  -17.1880 O.2   112  ASN112     -0.2715
     40  CB       -21.2810   -2.3160  -19.0210 C.3   112  ASN112      0.1195
     41  CG       -22.2180   -3.3490  -19.6040 C.2   112  ASN112      0.2630
     42  OD1      -22.8360   -4.1460  -18.8820 O.2   112  ASN112     -0.2716
     43  ND2      -22.3160   -3.3570  -20.9270 N.am  112  ASN112     -0.0877
     44  N        -20.0900   -1.6870  -16.2330 N.am  113  GLY113     -0.1940
     45  CA       -19.0100   -1.1380  -15.4450 C.3   113  GLY113      0.2014
     46  C        -19.5140   -0.4150  -14.2070 C.2   113  GLY113      0.2640
     47  O        -18.7880    0.3990  -13.6290 O.2   113  GLY113     -0.2714
     48  N        -20.7600   -0.6850  -13.8090 N.am  114  THR114     -0.1936
     49  CA       -21.3030   -0.0640  -12.6050 C.3   114  THR114      0.2028
     50  C        -21.7870   -1.0970  -11.6020 C.2   114  THR114      0.2643
     51  O        -22.6920   -0.8230  -10.8150 O.2   114  THR114     -0.2714
     52  CB       -22.4650    0.9560  -12.8740 C.3   114  THR114      0.1808
     53  OG1      -23.5310    0.3220  -13.5860 O.3   114  THR114     -0.2208
     54  CG2      -21.9530    2.1610  -13.6380 C.3   114  THR114      0.0379
     55  N        -21.1910   -2.2870  -11.6480 N.am  115  GLY115     -0.1939
     56  CA       -21.5200   -3.3330  -10.6960 C.3   115  GLY115      0.2014
     57  C        -22.7870   -4.1560  -10.8120 C.2   115  GLY115      0.2639
     58  O        -23.1620   -4.8000   -9.8340 O.2   115  GLY115     -0.2714
     59  N        -23.4530   -4.1620  -11.9650 N.am  116  LYS116     -0.1963
     60  CA       -24.6650   -4.9780  -12.1030 C.3   116  LYS116      0.1728
     61  C        -24.2870   -6.4140  -11.7890 C.2   116  LYS116      0.2617
     62  O        -24.8570   -7.0350  -10.8940 O.2   116  LYS116     -0.2715
     63  CB       -25.2340   -4.9070  -13.5240 C.3   116  LYS116      0.0311
     64  CG       -26.0280   -3.6350  -13.8300 C.3   116  LYS116      0.0038
     65  CD       -26.4960   -3.5810  -15.2820 C.3   116  LYS116      0.0206
     66  CE       -25.4830   -2.8810  -16.1460 C.3   116  LYS116      0.1093
     67  NZ       -24.1830   -3.5710  -16.1830 N.3   116  LYS116     -0.1314
     68  N        -23.3060   -6.9320  -12.5210 N.am  117  THR117     -0.1937
     69  CA       -22.8310   -8.2950  -12.3320 C.3   117  THR117      0.2028
     70  C        -22.1450   -8.5020  -10.9790 C.2   117  THR117      0.2642
     71  O        -22.1100   -9.6220  -10.4510 O.2   117  THR117     -0.2714
     72  CB       -21.8650   -8.6740  -13.4340 C.3   117  THR117      0.1808
     73  OG1      -22.5910   -8.8330  -14.6510 O.3   117  THR117     -0.2208
     74  CG2      -21.1210   -9.9550  -13.0910 C.3   117  THR117      0.0379
     75  N        -21.5890   -7.4330  -10.4160 N.am  118  THR118     -0.1950
     76  CA       -20.9350   -7.5540   -9.1190 C.3   118  THR118      0.1897
     77  C        -21.9950   -7.8970   -8.0910 C.2   118  THR118      0.2313
     78  O        -21.7920   -8.7810   -7.2700 O.2   118  THR118     -0.2863
     79  CB       -20.2210   -6.2520   -8.7060 C.3   118  THR118      0.1794
     80  OG1      -19.0910   -6.0320   -9.5630 O.3   118  THR118     -0.2208
     81  CG2      -19.7480   -6.3390   -7.2810 C.3   118  THR118      0.0378
     82  N        -23.4110  -14.0860  -17.5280 N.3   169  GLN169     -0.1231
     83  CA       -23.3690  -13.0830  -18.5730 C.3   169  GLN169      0.1698
     84  C        -22.6230  -13.6250  -19.7960 C.2   169  GLN169      0.2592
     85  O        -23.2010  -13.7830  -20.8720 O.2   169  GLN169     -0.2718
     86  CB       -22.6720  -11.8240  -18.0570 C.3   169  GLN169      0.0381
     87  CG       -22.8880  -10.6180  -18.9400 C.3   169  GLN169      0.0905
     88  CD       -22.2410   -9.3620  -18.4060 C.2   169  GLN169      0.2608
     89  OE1      -22.4500   -8.9690  -17.2520 O.2   169  GLN169     -0.2717
     90  NE2      -21.4600   -8.7120  -19.2500 N.am  169  GLN169     -0.0878
     91  N        -21.3410  -13.9290  -19.6050 N.am  170  TYR170     -0.1976
     92  CA       -20.4630  -14.4380  -20.6610 C.3   170  TYR170      0.1639
     93  C        -20.7710  -15.8660  -21.0830 C.2   170  TYR170      0.2290
     94  O        -20.2150  -16.8210  -20.5430 O.2   170  TYR170     -0.2864
     95  CB       -19.0180  -14.3240  -20.1890 C.3   170  TYR170      0.0560
     96  CG       -18.7860  -13.0060  -19.5060 C.ar  170  TYR170     -0.0198
     97  CD1      -18.8980  -11.8100  -20.2140 C.ar  170  TYR170     -0.0009
     98  CD2      -18.5630  -12.9410  -18.1330 C.ar  170  TYR170     -0.0009
     99  CE1      -18.8060  -10.5810  -19.5760 C.ar  170  TYR170      0.0417
    100  CE2      -18.4700  -11.7110  -17.4790 C.ar  170  TYR170      0.0417
    101  CZ       -18.5980  -10.5360  -18.2100 C.ar  170  TYR170      0.1957
    102  OH       -18.5580   -9.3190  -17.5730 O.3   170  TYR170     -0.2866
    103  N        -16.7520    1.8630  -14.5260 N.3   292  GLY292     -0.1225
    104  CA       -15.4020    1.5090  -14.1130 C.3   292  GLY292      0.1811
    105  C        -14.8990    2.1640  -12.8350 C.2   292  GLY292      0.2280
    106  O        -13.8570    1.7900  -12.2870 O.2   292  GLY292     -0.2866
@<TRIPOS>BOND
     1    93    92    1
     2    93    94    2
     3    43    41   am
     4    85    84    2
     5    92    95    1
     6    92    91    1
     7    97    99   ar
     8    97    96   ar
     9    95    96    1
    10    84    91   am
    11    84    83    1
    12    41    40    1
    13    41    42    2
    14    99   101   ar
    15    96    98   ar
    16    90    88   am
    17    40    37    1
    18    87    88    1
    19    87    86    1
    20    83    86    1
    21    83    82    1
    22    88    89    2
    23    36    37    1
    24    36    31   am
    25   101   102    1
    26   101   100   ar
    27    98   100   ar
    28    33    30    1
    29    33    34    1
    30    30    31    1
    31    30    29    1
    32    37    38    1
    33    31    32    2
    34    39    38    2
    35    29    35    1
    36    38    44   am
    37    34    35    1
    38    44    45    1
    39    67    66    1
    40    66    65    1
    41    45    46    1
    42    65    64    1
    43    73    72    1
    44   103   104    1
    45    46    48   am
    46    46    47    2
    47   104   105    1
    48    64    63    1
    49    48    49    1
    50    54    52    1
    51    53    52    1
    52    63    60    1
    53    72    74    1
    54    72    69    1
    55    52    49    1
    56   105   106    2
    57    49    50    1
    58    68    69    1
    59    68    61   am
    60    69    70    1
    61    60    59    1
    62    60    61    1
    63    59    57   am
    64    61    62    2
    65    55    50   am
    66    55    56    1
    67    50    51    2
    68    70    71    2
    69    70    75   am
    70    57    56    1
    71    57    58    2
    72    75    76    1
    73    24    26   ar
    74    24    23   ar
    75    26    28   ar
    76    22    23    1
    77    22    19    1
    78    23    25   ar
    79    80    79    1
    80    28    27   ar
    81    76    79    1
    82    76    77    1
    83    25    27   ar
    84    79    81    1
    85    19    18    1
    86    19    20    1
    87    18    15   am
    88    12    11    1
    89     9    11   ar
    90     9     7   ar
    91    11    10   ar
    92    77    78    2
    93     7     6   ar
    94    14    15    1
    95    14    17    1
    96    14    13    1
    97    10     8   ar
    98    15    16    2
    99     6     8   ar
   100     6     5    1
   101    20    21    2
   102     5     2    1
   103     4     3    2
   104     2     3    1
   105     2     1    1
