@<TRIPOS>MOLECULE
tmp/3bk7A00.pdb
 119 115 0 0 0
SMALL
GASTEIGER

@<TRIPOS>ATOM
      1  N        -30.1150  -17.8660  -53.0250 N.3   353  TYR353     -0.1241
      2  CA       -28.8130  -18.4580  -52.7730 C.3   353  TYR353      0.1605
      3  C        -28.8050  -19.9350  -53.1400 C.2   353  TYR353      0.2264
      4  O        -27.7770  -20.6010  -53.0450 O.2   353  TYR353     -0.2867
      5  CB       -28.4470  -18.2990  -51.2950 C.3   353  TYR353      0.0534
      6  CG       -28.0520  -16.9000  -50.9030 C.ar  353  TYR353     -0.0201
      7  CD1      -28.6690  -16.2530  -49.8350 C.ar  353  TYR353     -0.0009
      8  CD2      -27.0530  -16.2270  -51.5910 C.ar  353  TYR353     -0.0009
      9  CE1      -28.2920  -14.9670  -49.4680 C.ar  353  TYR353      0.0417
     10  CE2      -26.6710  -14.9490  -51.2330 C.ar  353  TYR353      0.0417
     11  CZ       -27.2910  -14.3280  -50.1760 C.ar  353  TYR353      0.1957
     12  OH       -26.9010  -13.0660  -49.8290 O.3   353  TYR353     -0.2866
     13  N        -30.0530  -22.3150  -51.5470 N.3   355  SER355     -0.1202
     14  CA       -30.5110  -22.9550  -50.3240 C.3   355  SER355      0.2020
     15  C        -31.4420  -22.0350  -49.5390 C.2   355  SER355      0.2618
     16  O        -32.0680  -22.4550  -48.5690 O.2   355  SER355     -0.2717
     17  CB       -29.3140  -23.3640  -49.4470 C.3   355  SER355      0.2103
     18  OG       -28.4450  -22.2710  -49.1600 O.3   355  SER355     -0.2182
     19  N        -31.5360  -20.7800  -49.9560 N.am  356  PHE356     -0.1975
     20  CA       -32.3970  -19.8300  -49.2670 C.3   356  PHE356      0.1639
     21  C        -32.8790  -18.7290  -50.2050 C.2   356  PHE356      0.2290
     22  O        -32.0720  -18.0820  -50.8800 O.2   356  PHE356     -0.2864
     23  CB       -31.6540  -19.1960  -48.0930 C.3   356  PHE356      0.0560
     24  CG       -32.3770  -18.0330  -47.4890 C.ar  356  PHE356     -0.0200
     25  CD1      -33.3440  -18.2280  -46.5160 C.ar  356  PHE356     -0.0042
     26  CD2      -32.1190  -16.7330  -47.9320 C.ar  356  PHE356     -0.0042
     27  CE1      -34.0460  -17.1500  -45.9910 C.ar  356  PHE356     -0.0003
     28  CE2      -32.8180  -15.6480  -47.4130 C.ar  356  PHE356     -0.0003
     29  CZ       -33.7790  -15.8570  -46.4450 C.ar  356  PHE356     -0.0000
     30  N        -33.8830  -13.4080  -37.2730 N.3   377  ASN377     -0.1225
     31  CA       -32.6470  -13.5650  -38.0490 C.3   377  ASN377      0.1785
     32  C        -32.7300  -14.7720  -38.9580 C.2   377  ASN377      0.2598
     33  O        -33.4750  -15.7090  -38.6930 O.2   377  ASN377     -0.2718
     34  CB       -31.4220  -13.7150  -37.1430 C.3   377  ASN377      0.1169
     35  CG       -31.0930  -12.4420  -36.3920 C.2   377  ASN377      0.2627
     36  OD1      -31.2750  -11.3320  -36.9080 O.2   377  ASN377     -0.2716
     37  ND2      -30.5860  -12.5940  -35.1740 N.am  377  ASN377     -0.0877
     38  N        -31.9490  -14.7450  -40.0280 N.am  378  GLY378     -0.1942
     39  CA       -31.9640  -15.8340  -40.9780 C.3   378  GLY378      0.2014
     40  C        -33.1470  -15.6380  -41.9010 C.2   378  GLY378      0.2639
     41  O        -33.5650  -16.5670  -42.5960 O.2   378  GLY378     -0.2714
     42  N        -33.6770  -14.4170  -41.9240 N.am  379  ILE379     -0.1963
     43  CA       -34.8370  -14.1130  -42.7500 C.3   379  ILE379      0.1727
     44  C        -34.5530  -13.2670  -43.9920 C.2   379  ILE379      0.2617
     45  O        -35.4010  -13.1680  -44.8870 O.2   379  ILE379     -0.2715
     46  CB       -35.9540  -13.4340  -41.9110 C.3   379  ILE379      0.0290
     47  CG1      -37.3150  -13.7230  -42.5520 C.3   379  ILE379      0.0022
     48  CG2      -35.7070  -11.9270  -41.8070 C.3   379  ILE379      0.0023
     49  CD1      -37.6310  -15.2200  -42.6760 C.3   379  ILE379      0.0001
     50  N        -33.3750  -12.6500  -44.0470 N.am  380  GLY380     -0.1940
     51  CA       -33.0260  -11.8570  -45.2120 C.3   380  GLY380      0.2014
     52  C        -32.9110  -10.3600  -45.0220 C.2   380  GLY380      0.2639
     53  O        -32.8780   -9.6100  -46.0050 O.2   380  GLY380     -0.2714
     54  N        -32.8450   -9.9110  -43.7750 N.am  381  LYS381     -0.1963
     55  CA       -32.7300   -8.4850  -43.5150 C.3   381  LYS381      0.1728
     56  C        -31.4100   -7.9370  -44.0730 C.2   381  LYS381      0.2617
     57  O        -31.4160   -6.9830  -44.8470 O.2   381  LYS381     -0.2715
     58  CB       -32.8750   -8.2120  -42.0120 C.3   381  LYS381      0.0311
     59  CG       -34.2380   -8.6720  -41.4610 C.3   381  LYS381      0.0038
     60  CD       -34.5330   -8.2450  -40.0170 C.3   381  LYS381      0.0206
     61  CE       -33.5480   -8.8470  -39.0210 C.3   381  LYS381      0.1093
     62  NZ       -33.3090  -10.3080  -39.2080 N.3   381  LYS381     -0.1314
     63  N        -30.2850   -8.5500  -43.7140 N.am  382  THR382     -0.1937
     64  CA       -28.9840   -8.1000  -44.2210 C.3   382  THR382      0.2028
     65  C        -28.8740   -8.2520  -45.7520 C.2   382  THR382      0.2642
     66  O        -28.3540   -7.3570  -46.4440 O.2   382  THR382     -0.2714
     67  CB       -27.8230   -8.8850  -43.5540 C.3   382  THR382      0.1808
     68  OG1      -27.6700   -8.4470  -42.1960 O.3   382  THR382     -0.2208
     69  CG2      -26.5100   -8.6750  -44.3180 C.3   382  THR382      0.0379
     70  N        -29.3510   -9.3840  -46.2720 N.am  383  THR383     -0.1950
     71  CA       -29.3110   -9.6260  -47.7120 C.3   383  THR383      0.1897
     72  C        -29.9640   -8.4200  -48.3900 C.2   383  THR383      0.2313
     73  O        -29.4250   -7.8420  -49.3500 O.2   383  THR383     -0.2863
     74  CB       -30.1150  -10.8780  -48.1110 C.3   383  THR383      0.1794
     75  OG1      -29.7390  -11.9860  -47.2900 O.3   383  THR383     -0.2208
     76  CG2      -29.8450  -11.2330  -49.5660 C.3   383  THR383      0.0378
     77  N        -27.8030   -5.2200  -48.2600 N.3   386  LYS386     -0.1245
     78  CA       -26.6740   -5.3070  -49.1750 C.3   386  LYS386      0.1561
     79  C        -27.0720   -5.0820  -50.6310 C.2   386  LYS386      0.2260
     80  O        -26.2270   -4.7550  -51.4640 O.2   386  LYS386     -0.2867
     81  CB       -25.9530   -6.6470  -49.0160 C.3   386  LYS386      0.0271
     82  CG       -25.2920   -6.8240  -47.6590 C.3   386  LYS386      0.0035
     83  CD       -24.4110   -8.0640  -47.5960 C.3   386  LYS386      0.0206
     84  CE       -25.1890   -9.3370  -47.9090 C.3   386  LYS386      0.1093
     85  NZ       -24.3640  -10.5600  -47.6880 N.3   386  LYS386     -0.1314
     86  N        -23.3160   -4.8500  -40.5000 N.3   410  GLN410     -0.1231
     87  CA       -23.7200   -5.5980  -39.3140 C.3   410  GLN410      0.1698
     88  C        -22.5410   -6.2560  -38.6200 C.2   410  GLN410      0.2592
     89  O        -22.3470   -6.0770  -37.4170 O.2   410  GLN410     -0.2718
     90  CB       -24.7400   -6.6880  -39.6660 C.3   410  GLN410      0.0381
     91  CG       -25.1430   -7.5450  -38.4520 C.3   410  GLN410      0.0905
     92  CD       -26.1270   -8.6630  -38.7690 C.2   410  GLN410      0.2608
     93  OE1      -26.7590   -8.6790  -39.8280 O.2   410  GLN410     -0.2717
     94  NE2      -26.2720   -9.5970  -37.8390 N.am  410  GLN410     -0.0878
     95  N        -21.7760   -7.0410  -39.3780 N.am  411  TYR411     -0.1976
     96  CA       -20.6040   -7.7340  -38.8460 C.3   411  TYR411      0.1639
     97  C        -19.3810   -6.9560  -39.2860 C.2   411  TYR411      0.2290
     98  O        -18.9080   -7.1150  -40.4070 O.2   411  TYR411     -0.2864
     99  CB       -20.4860   -9.1660  -39.3930 C.3   411  TYR411      0.0560
    100  CG       -21.7230  -10.0400  -39.2520 C.ar  411  TYR411     -0.0198
    101  CD1      -22.7180  -10.0490  -40.2430 C.ar  411  TYR411     -0.0009
    102  CD2      -21.8860  -10.8920  -38.1480 C.ar  411  TYR411     -0.0009
    103  CE1      -23.8400  -10.8930  -40.1430 C.ar  411  TYR411      0.0417
    104  CE2      -23.0040  -11.7330  -38.0340 C.ar  411  TYR411      0.0417
    105  CZ       -23.9740  -11.7310  -39.0370 C.ar  411  TYR411      0.1957
    106  OH       -25.0670  -12.5710  -38.9450 O.3   411  TYR411     -0.2866
    107  N        -28.1620   -3.2440  -37.6510 N.3   483  GLU483     -0.1245
    108  CA       -28.0900   -3.6430  -36.2480 C.3   483  GLU483      0.1567
    109  C        -27.0620   -2.8950  -35.4010 C.2   483  GLU483      0.2260
    110  O        -26.0120   -3.4410  -35.0600 O.2   483  GLU483     -0.2867
    111  CB       -27.8490   -5.1570  -36.1470 C.3   483  GLU483      0.0388
    112  CG       -28.9210   -5.9860  -36.8470 C.3   483  GLU483      0.1160
    113  CD       -28.8810   -7.4740  -36.4920 C.2   483  GLU483      0.3649
    114  OE1      -29.5350   -8.2760  -37.1990 O.co2 483  GLU483     -0.2457
    115  OE2      -28.2090   -7.8400  -35.5060 O.co2 483  GLU483     -0.2457
    116  N        -33.7400  -19.1890  -42.2920 N.3   536  GLY536     -0.1225
    117  CA       -32.8470  -20.1510  -42.9130 C.3   536  GLY536      0.1811
    118  C        -33.3790  -20.8170  -44.1870 C.2   536  GLY536      0.2280
    119  O        -32.6320  -21.5050  -44.9010 O.2   536  GLY536     -0.2866
@<TRIPOS>BOND
     1     3     4    2
     2     3     2    1
     3     1     2    1
     4     2     5    1
     5     8    10   ar
     6     8     6   ar
     7    13    14    1
     8    80    79    2
     9     5     6    1
    10    10    11   ar
    11     6     7   ar
    12    22    21    2
    13    79    78    1
    14    14    15    1
    15    14    17    1
    16    21    20    1
    17    11    12    1
    18    11     9   ar
    19    19    15   am
    20    19    20    1
    21     7     9   ar
    22    76    74    1
    23    15    16    2
    24    17    18    1
    25    73    72    2
    26    20    23    1
    27    78    81    1
    28    78    77    1
    29    81    82    1
    30    72    71    1
    31    74    71    1
    32    74    75    1
    33    23    24    1
    34    26    24   ar
    35    26    28   ar
    36    84    85    1
    37    84    83    1
    38    71    70    1
    39    82    83    1
    40    24    25   ar
    41    28    29   ar
    42    25    27   ar
    43    29    27   ar
    44    66    65    2
    45    70    65   am
    46    53    52    2
    47    65    64    1
    48    51    52    1
    49    51    50    1
    50    52    54   am
    51   119   118    2
    52    45    44    2
    53    57    56    2
    54    69    67    1
    55    64    63    1
    56    64    67    1
    57   118   117    1
    58    56    63   am
    59    56    55    1
    60    50    44   am
    61    44    43    1
    62    54    55    1
    63    67    68    1
    64    55    58    1
    65   117   116    1
    66    43    42    1
    67    43    46    1
    68    49    47    1
    69    41    40    2
    70    47    46    1
    71    58    59    1
    72    42    40   am
    73    46    48    1
    74    40    39    1
    75    59    60    1
    76    39    38    1
    77    86    87    1
    78    98    97    2
    79   101   103   ar
    80   101   100   ar
    81   103   105   ar
    82    38    32   am
    83    60    61    1
    84    93    92    2
    85    90    87    1
    86    90    91    1
    87    99   100    1
    88    99    96    1
    89    95    96    1
    90    95    88   am
    91    87    88    1
    92    97    96    1
    93   100   102   ar
    94    62    61    1
    95   105   106    1
    96   105   104   ar
    97    32    33    2
    98    32    31    1
    99    92    91    1
   100    92    94   am
   101    88    89    2
   102   102   104   ar
   103    31    30    1
   104    31    34    1
   105   107   108    1
   106   114   113   ar
   107    34    35    1
   108    36    35    2
   109   112   113    1
   110   112   111    1
   111   113   115   ar
   112    35    37   am
   113   108   111    1
   114   108   109    1
   115   109   110    2
