@<TRIPOS>MOLECULE
tmp/3bk9B00.pdb
 94 88 0 0 0
SMALL
GASTEIGER

@<TRIPOS>ATOM
      1  N         30.6340    4.6700    0.2790 N.3    45  PHE45      -0.1227
      2  CA        30.0970    5.9570    0.1630 C.3    45  PHE45       0.1736
      3  C         28.8740    5.9510   -0.7570 C.2    45  PHE45       0.2595
      4  O         27.8340    6.5240   -0.4710 O.2    45  PHE45      -0.2718
      5  CB        31.2580    6.8580   -0.3060 C.3    45  PHE45       0.0547
      6  CG        30.9240    8.2600   -0.3030 C.ar   45  PHE45      -0.0202
      7  CD1       30.9230    8.9630    0.8860 C.ar   45  PHE45      -0.0042
      8  CD2       30.5660    8.9040   -1.4980 C.ar   45  PHE45      -0.0042
      9  CE1       30.5790   10.3320    0.8980 C.ar   45  PHE45      -0.0003
     10  CE2       30.2430   10.2560   -1.4850 C.ar   45  PHE45      -0.0003
     11  CZ        30.2880   10.9650   -0.2520 C.ar   45  PHE45      -0.0000
     12  N         29.0140    5.3310   -1.9060 N.am   46  ILE46      -0.1980
     13  CA        27.9300    5.2350   -2.7980 C.3    46  ILE46       0.1595
     14  C         26.8290    4.3610   -2.2150 C.2    46  ILE46       0.2287
     15  O         25.6230    4.6680   -2.3380 O.2    46  ILE46      -0.2864
     16  CB        28.4200    4.6300   -4.1180 C.3    46  ILE46       0.0276
     17  CG1       29.3590    5.6050   -4.8700 C.3    46  ILE46       0.0022
     18  CG2       27.2070    3.9770   -4.9950 C.3    46  ILE46       0.0022
     19  CD1       30.2060    4.8540   -5.9060 C.3    46  ILE46       0.0001
     20  N         24.4390    6.0620    0.4640 N.3    49  ALA49      -0.1245
     21  CA        23.5360    7.0480   -0.0240 C.3    49  ALA49       0.1562
     22  C         22.4840    6.3490   -0.8360 C.2    49  ALA49       0.2260
     23  O         21.3280    6.7070   -0.7280 O.2    49  ALA49      -0.2867
     24  CB        24.3240    8.1090   -0.8800 C.3    49  ALA49       0.0290
     25  N         38.5170    9.9440    3.3540 N.3   107  TYR107     -0.1241
     26  CA        37.6010   10.6940    2.5190 C.3   107  TYR107      0.1605
     27  C         38.3040   11.5700    1.5560 C.2   107  TYR107      0.2264
     28  O         37.7530   11.8010    0.4950 O.2   107  TYR107     -0.2867
     29  CB        36.6850   11.6100    3.3120 C.3   107  TYR107      0.0534
     30  CG        35.4940   12.1680    2.5300 C.ar  107  TYR107     -0.0201
     31  CD1       34.9490   13.4000    2.8410 C.ar  107  TYR107     -0.0009
     32  CD2       34.9380   11.4860    1.5000 C.ar  107  TYR107     -0.0009
     33  CE1       33.8510   13.8850    2.2200 C.ar  107  TYR107      0.0417
     34  CE2       33.8360   11.9670    0.8560 C.ar  107  TYR107      0.0417
     35  CZ        33.2880   13.1780    1.2250 C.ar  107  TYR107      0.1957
     36  OH        32.1880   13.6560    0.5970 O.3   107  TYR107     -0.2866
     37  N         36.9910   12.6810   -2.2390 N.3   111  ARG111     -0.1245
     38  CA        36.0010   13.7930   -2.2400 C.3   111  ARG111      0.1563
     39  C         36.0390   14.7100   -3.4880 C.2   111  ARG111      0.2260
     40  O         34.9880   15.1850   -3.9440 O.2   111  ARG111     -0.2867
     41  CB        36.1280   14.6620   -0.9740 C.3   111  ARG111      0.0307
     42  CG        35.0460   15.7780   -0.8620 C.3   111  ARG111      0.0489
     43  CD        35.3730   16.6690    0.3720 C.3   111  ARG111      0.2205
     44  NE        34.1760   17.4120    0.8350 N.pl3 111  ARG111     -0.0865
     45  CZ        34.1500   18.7440    1.0130 C.cat 111  ARG111      0.5346
     46  NH1       33.0510   19.3450    1.3880 N.pl3 111  ARG111      0.1354
     47  NH2       35.2410   19.4490    0.8720 N.pl3 111  ARG111      0.1354
     48  N         33.8890   13.9340   -6.7590 N.3   114  LEU114     -0.1245
     49  CA        32.4320   14.1930   -6.5650 C.3   114  LEU114      0.1561
     50  C         31.9690   15.4600   -7.2560 C.2   114  LEU114      0.2260
     51  O         30.7780   15.6840   -7.4700 O.2   114  LEU114     -0.2867
     52  CB        32.0350   14.1950   -5.0460 C.3   114  LEU114      0.0270
     53  CG        32.2470   12.8550   -4.2640 C.3   114  LEU114      0.0019
     54  CD1       31.9680   12.8550   -2.7860 C.3   114  LEU114      0.0001
     55  CD2       31.3650   11.8300   -4.9370 C.3   114  LEU114      0.0001
     56  N         28.5990   17.4330   -6.4610 N.3   117  SER117     -0.1202
     57  CA        27.5350   16.4960   -6.0630 C.3   117  SER117      0.2020
     58  C         27.1850   16.5850   -4.5440 C.2   117  SER117      0.2619
     59  O         28.0740   16.5810   -3.7310 O.2   117  SER117     -0.2717
     60  CB        27.9530   15.0650   -6.3750 C.3   117  SER117      0.2103
     61  OG        28.2300   14.8910   -7.7150 O.3   117  SER117     -0.2182
     62  N         25.9040   16.6130   -4.1760 N.am  118  SER118     -0.1937
     63  CA        25.5050   16.8340   -2.7550 C.3   118  SER118      0.2055
     64  C         24.1030   16.2950   -2.5180 C.2   118  SER118      0.2643
     65  O         23.2590   16.4610   -3.4130 O.2   118  SER118     -0.2714
     66  CB        25.4120   18.3500   -2.4450 C.3   118  SER118      0.2130
     67  OG        25.2330   18.3800   -1.0440 O.3   118  SER118     -0.2179
     68  N         23.7720   15.7580   -1.3030 N.am  119  GLY119     -0.1954
     69  CA        22.4080   15.2840   -1.0860 C.3   119  GLY119      0.1869
     70  C         21.4430   16.3950   -1.0620 C.2   119  GLY119      0.2309
     71  O         20.2390   16.1610   -1.0920 O.2   119  GLY119     -0.2863
     72  N         34.2070   16.1410    7.5150 N.3   242  ILE242     -0.1245
     73  CA        34.7570   17.3760    6.9500 C.3   242  ILE242      0.1561
     74  C         34.9480   18.5710    7.8590 C.2   242  ILE242      0.2260
     75  O         35.4510   19.6340    7.4240 O.2   242  ILE242     -0.2867
     76  CB        34.0060   17.8060    5.6900 C.3   242  ILE242      0.0252
     77  CG1       32.6240   18.3330    6.0610 C.3   242  ILE242      0.0019
     78  CG2       34.2460   16.7490    4.5490 C.3   242  ILE242      0.0019
     79  CD1       31.9410   19.2100    4.9730 C.3   242  ILE242      0.0001
     80  N         30.5270   22.6500    1.8920 N.3   247  GLY247     -0.1210
     81  CA        30.0880   21.3720    1.3740 C.3   247  GLY247      0.1956
     82  C         30.3540   21.3840   -0.1310 C.2   247  GLY247      0.2613
     83  O         30.5470   22.4580   -0.7710 O.2   247  GLY247     -0.2717
     84  N         30.3610   20.2010   -0.7280 N.am  248  THR248     -0.1938
     85  CA        30.6220   20.1000   -2.1510 C.3   248  THR248      0.2028
     86  C         29.5340   20.8300   -2.9270 C.2   248  THR248      0.2642
     87  O         29.8430   21.3900   -3.9780 O.2   248  THR248     -0.2714
     88  CB        30.6140   18.6370   -2.5880 C.3   248  THR248      0.1808
     89  OG1       29.4210   18.0790   -2.0630 O.3   248  THR248     -0.2208
     90  CG2       31.7430   17.9190   -2.0180 C.3   248  THR248      0.0379
     91  N         28.2780   20.8080   -2.4270 N.am  249  GLY249     -0.1954
     92  CA        27.1630   21.5510   -3.0220 C.3   249  GLY249      0.1869
     93  C         27.1530   23.1290   -2.8900 C.2   249  GLY249      0.2309
     94  O         26.1800   23.8170   -3.3480 O.2   249  GLY249     -0.2863
@<TRIPOS>BOND
     1    61    60    1
     2    51    50    2
     3    50    49    1
     4    48    49    1
     5    49    52    1
     6    56    57    1
     7    60    57    1
     8    57    58    1
     9    19    17    1
    10    52    53    1
    11    18    16    1
    12    55    53    1
    13    17    16    1
    14    58    62   am
    15    58    59    2
    16    53    54    1
    17    62    63    1
    18    16    13    1
    19    87    86    2
    20    40    39    2
    21    39    38    1
    22    65    64    2
    23    94    93    2
    24    92    93    1
    25    92    91    1
    26    86    91   am
    27    86    85    1
    28    13    14    1
    29    13    12    1
    30    63    64    1
    31    63    66    1
    32    88    85    1
    33    88    89    1
    34    88    90    1
    35    64    68   am
    36    66    67    1
    37    15    14    2
    38    38    37    1
    39    38    41    1
    40    85    84    1
    41    12     3   am
    42     8    10   ar
    43     8     6   ar
    44    10    11   ar
    45    68    69    1
    46    71    70    2
    47    69    70    1
    48    41    42    1
    49    24    21    1
    50    42    43    1
    51    22    23    2
    52    22    21    1
    53    83    82    2
    54     3     4    2
    55     3     2    1
    56    84    82   am
    57     5     6    1
    58     5     2    1
    59     6     7   ar
    60    11     9   ar
    61    82    81    1
    62    21    20    1
    63     2     1    1
    64    43    44    1
    65    28    27    2
    66    36    35    1
    67    44    45    2
    68    34    35   ar
    69    34    32   ar
    70    47    45    1
    71     7     9   ar
    72    45    46    1
    73    35    33   ar
    74    81    80    1
    75    32    30   ar
    76    27    26    1
    77    33    31   ar
    78    26    29    1
    79    26    25    1
    80    30    31   ar
    81    30    29    1
    82    78    76    1
    83    79    77    1
    84    76    77    1
    85    76    73    1
    86    73    72    1
    87    73    74    1
    88    75    74    2
