@<TRIPOS>MOLECULE
tmp/3bkbA00.pdb
 158 147 0 0 0
SMALL
GASTEIGER

@<TRIPOS>ATOM
      1  N         15.0760   37.2230   57.9880 N.3   119  ILE119     -0.1231
      2  CA        14.6640   36.1950   58.9920 C.3   119  ILE119      0.1692
      3  C         15.7510   35.1570   59.2430 C.2   119  ILE119      0.2593
      4  O         15.6470   34.3720   60.1860 O.2   119  ILE119     -0.2718
      5  CB        13.3350   35.4970   58.6490 C.3   119  ILE119      0.0266
      6  CG1       13.3990   34.7390   57.3250 C.3   119  ILE119      0.0019
      7  CG2       12.1840   36.5340   58.5890 C.3   119  ILE119      0.0020
      8  CD1       12.0530   34.0110   56.9470 C.3   119  ILE119      0.0001
      9  N         16.7180   35.0520   58.3280 N.am  120  GLY120     -0.1942
     10  CA        17.8030   34.1190   58.4720 C.3   120  GLY120      0.2014
     11  C         18.9740   34.4420   57.5570 C.2   120  GLY120      0.2639
     12  O         18.8950   35.3320   56.6970 O.2   120  GLY120     -0.2714
     13  N         20.0510   33.6990   57.7520 N.am  121  ARG121     -0.1963
     14  CA        21.2130   33.7180   56.8430 C.3   121  ARG121      0.1729
     15  C         21.5610   32.2960   56.4890 C.2   121  ARG121      0.2616
     16  O         21.8330   31.4660   57.3650 O.2   121  ARG121     -0.2715
     17  CB        22.4240   34.5090   57.4060 C.3   121  ARG121      0.0348
     18  CG        23.4630   33.7690   58.2660 C.3   121  ARG121      0.0492
     19  CD        24.9010   34.3540   58.1180 C.3   121  ARG121      0.2205
     20  NE        25.7660   33.5610   57.2290 N.pl3 121  ARG121     -0.0865
     21  CZ        26.3340   32.4020   57.5490 C.cat 121  ARG121      0.5346
     22  NH1       26.1460   31.8600   58.7440 N.pl3 121  ARG121      0.1354
     23  NH2       27.0890   31.7690   56.6600 N.pl3 121  ARG121      0.1354
     24  N         21.6200   32.0020   55.2090 N.am  122  GLY122     -0.1955
     25  CA        22.0120   30.7170   54.7450 C.3   122  GLY122      0.1869
     26  C         23.3500   30.8050   54.0500 C.2   122  GLY122      0.2309
     27  O         23.9990   31.8640   54.0100 O.2   122  GLY122     -0.2863
     28  N         17.9860   35.2780   53.9580 N.3   127  VAL127     -0.1245
     29  CA        16.6120   34.8160   53.7330 C.3   127  VAL127      0.1561
     30  C         15.7160   35.8710   54.3680 C.2   127  VAL127      0.2260
     31  O         15.9640   36.3240   55.4990 O.2   127  VAL127     -0.2867
     32  CB        16.3770   33.3950   54.3370 C.3   127  VAL127      0.0252
     33  CG1       14.9520   32.9490   54.1520 C.3   127  VAL127      0.0019
     34  CG2       17.3560   32.3570   53.7190 C.3   127  VAL127      0.0019
     35  N          8.7170   33.1300   52.3450 N.3   140  ALA140     -0.1245
     36  CA        10.1550   33.1920   52.6550 C.3   140  ALA140      0.1562
     37  C         10.9030   33.3180   51.3220 C.2   140  ALA140      0.2260
     38  O         10.5410   32.6450   50.3290 O.2   140  ALA140     -0.2867
     39  CB        10.6010   31.9290   53.4160 C.3   140  ALA140      0.0290
     40  N         14.6700   33.3090   49.5120 N.3   142  LYS142     -0.1245
     41  CA        16.0640   32.9170   49.5870 C.3   142  LYS142      0.1561
     42  C         16.8210   33.7400   48.5360 C.2   142  LYS142      0.2260
     43  O         16.3830   33.7890   47.3890 O.2   142  LYS142     -0.2867
     44  CB        16.1560   31.4000   49.3490 C.3   142  LYS142      0.0271
     45  CG        17.5380   30.8430   49.4120 C.3   142  LYS142      0.0035
     46  CD        17.5520   29.3030   49.3320 C.3   142  LYS142      0.0206
     47  CE        18.9580   28.7330   49.0730 C.3   142  LYS142      0.1093
     48  NZ        19.0990   27.2120   49.0850 N.3   142  LYS142     -0.1314
     49  N         17.7830   24.1200   45.0710 N.3   159  GLU159     -0.1245
     50  CA        16.6180   23.9880   45.9590 C.3   159  GLU159      0.1567
     51  C         15.2850   24.0540   45.2140 C.2   159  GLU159      0.2260
     52  O         14.3620   23.2700   45.4900 O.2   159  GLU159     -0.2867
     53  CB        16.6280   25.0510   47.0400 C.3   159  GLU159      0.0388
     54  CG        15.4560   24.9690   48.0400 C.3   159  GLU159      0.1160
     55  CD        15.9100   25.1990   49.4960 C.2   159  GLU159      0.3649
     56  OE1       16.9310   25.8730   49.6960 O.co2 159  GLU159     -0.2457
     57  OE2       15.2620   24.6670   50.4370 O.co2 159  GLU159     -0.2457
     58  N          8.8600   21.7350   53.1060 N.3   172  VAL172     -0.1245
     59  CA         8.5660   23.1270   52.7790 C.3   172  VAL172      0.1561
     60  C          8.1500   23.2300   51.3050 C.2   172  VAL172      0.2260
     61  O          8.8030   22.6320   50.4370 O.2   172  VAL172     -0.2867
     62  CB         9.7780   24.0450   53.0360 C.3   172  VAL172      0.0252
     63  CG1        9.5790   25.4460   52.3710 C.3   172  VAL172      0.0019
     64  CG2        9.9730   24.2390   54.5210 C.3   172  VAL172      0.0019
     65  N          9.3950   30.6270   48.7840 N.3   188  MET188     -0.1230
     66  CA         8.8040   29.4690   49.4720 C.3   188  MET188      0.1702
     67  C          7.7170   29.8820   50.4520 C.2   188  MET188      0.2592
     68  O          7.5930   31.0500   50.8130 O.2   188  MET188     -0.2718
     69  CB         9.9190   28.7080   50.2170 C.3   188  MET188      0.0401
     70  CG        10.9060   28.0670   49.2610 C.3   188  MET188      0.0596
     71  SD        12.4290   27.5140   50.0520 S.3   188  MET188     -0.1393
     72  CE        13.2760   29.0900   50.0700 C.3   188  MET188      0.0692
     73  N          6.9420   28.9060   50.8940 N.am  189  GLU189     -0.1966
     74  CA         5.9760   29.1610   51.9730 C.3   189  GLU189      0.1733
     75  C          6.7410   29.6730   53.2060 C.2   189  GLU189      0.2616
     76  O          7.8790   29.2770   53.4590 O.2   189  GLU189     -0.2715
     77  CB         5.1520   27.9190   52.3270 C.3   189  GLU189      0.0429
     78  CG         5.9080   26.8500   52.9770 C.3   189  GLU189      0.1163
     79  CD         5.0240   25.6990   53.4540 C.2   189  GLU189      0.3649
     80  OE1        3.9870   25.9140   54.0620 O.co2 189  GLU189     -0.2457
     81  OE2        5.4150   24.5860   53.2170 O.co2 189  GLU189     -0.2457
     82  N          6.0860   30.5530   53.9510 N.am  190  LEU190     -0.1963
     83  CA         6.6330   31.0230   55.2010 C.3   190  LEU190      0.1728
     84  C          6.0620   30.1680   56.3250 C.2   190  LEU190      0.2616
     85  O          4.8440   30.0820   56.5000 O.2   190  LEU190     -0.2715
     86  CB         6.3310   32.4960   55.3990 C.3   190  LEU190      0.0311
     87  CG         6.9680   33.0920   56.6520 C.3   190  LEU190      0.0022
     88  CD1        8.5100   33.2250   56.5770 C.3   190  LEU190      0.0001
     89  CD2        6.2730   34.5280   56.8040 C.3   190  LEU190      0.0001
     90  N          6.9570   29.5240   57.0540 N.am  191  VAL191     -0.1963
     91  CA         6.6130   28.6360   58.1580 C.3   191  VAL191      0.1727
     92  C          6.8240   29.4660   59.4130 C.2   191  VAL191      0.2616
     93  O          7.9630   29.7460   59.8180 O.2   191  VAL191     -0.2715
     94  CB         7.4640   27.3480   58.1580 C.3   191  VAL191      0.0290
     95  CG1        7.0130   26.3870   59.3050 C.3   191  VAL191      0.0023
     96  CG2        7.3900   26.6280   56.7730 C.3   191  VAL191      0.0023
     97  N          5.7090   29.8750   60.0220 N.am  192  GLN192     -0.1977
     98  CA         5.7710   31.0280   60.9140 C.3   192  GLN192      0.1601
     99  C          6.4420   30.8390   62.2730 C.2   192  GLN192      0.2287
    100  O          6.9140   31.8160   62.8790 O.2   192  GLN192     -0.2864
    101  CB         4.3840   31.6690   61.0330 C.3   192  GLN192      0.0394
    102  CG         3.9640   32.2240   59.6640 C.3   192  GLN192      0.0908
    103  CD         2.8190   33.1920   59.7330 C.2   192  GLN192      0.2608
    104  OE1        2.9480   34.2790   60.2950 O.2   192  GLN192     -0.2717
    105  NE2        1.6870   32.8050   59.1490 N.am  192  GLN192     -0.0878
    106  N          9.3300   29.4300   62.9060 N.3   194  GLY194     -0.1210
    107  CA        10.7610   29.4310   62.8260 C.3   194  GLY194      0.1956
    108  C         11.4320   28.0730   62.9790 C.2   194  GLY194      0.2611
    109  O         10.7830   27.0360   62.9160 O.2   194  GLY194     -0.2717
    110  N         12.7480   28.1090   63.1940 N.am  195  ASP195     -0.1973
    111  CA        13.5240   26.8750   63.1920 C.3   195  ASP195      0.1709
    112  C         13.3100   26.0580   64.4770 C.2   195  ASP195      0.2293
    113  O         13.0960   26.5790   65.5860 O.2   195  ASP195     -0.2864
    114  CB        15.0130   27.1090   62.9170 C.3   195  ASP195      0.1436
    115  CG        15.7900   27.4930   64.1750 C.2   195  ASP195      0.3671
    116  OD1       16.2750   26.5810   64.8750 O.co2 195  ASP195     -0.2456
    117  OD2       15.9380   28.6940   64.4550 O.co2 195  ASP195     -0.2456
    118  N         18.1470   22.7810   63.1700 N.3   239  ARG239     -0.1231
    119  CA        18.1080   24.1880   62.7540 C.3   239  ARG239      0.1694
    120  C         17.5750   24.3640   61.3040 C.2   239  ARG239      0.2592
    121  O         17.2060   25.4630   60.9030 O.2   239  ARG239     -0.2718
    122  CB        19.4320   24.9200   62.9890 C.3   239  ARG239      0.0321
    123  CG        20.5110   24.6950   61.9880 C.3   239  ARG239      0.0489
    124  CD        21.8620   25.2110   62.5220 C.3   239  ARG239      0.2205
    125  NE        21.8710   26.6460   62.8200 N.pl3 239  ARG239     -0.0865
    126  CZ        22.2340   27.5900   61.9570 C.cat 239  ARG239      0.5346
    127  NH1       22.6020   27.2700   60.7130 N.pl3 239  ARG239      0.1354
    128  NH2       22.1980   28.8670   62.3300 N.pl3 239  ARG239      0.1354
    129  N         17.6050   23.2890   60.5360 N.am  240  ASN240     -0.1974
    130  CA        17.0930   23.2640   59.1530 C.3   240  ASN240      0.1688
    131  C         15.6820   22.7290   59.0220 C.2   240  ASN240      0.2292
    132  O         15.2030   22.5260   57.8980 O.2   240  ASN240     -0.2864
    133  CB        18.0540   22.4830   58.2320 C.3   240  ASN240      0.1181
    134  CG        19.3490   23.2050   58.0180 C.2   240  ASN240      0.2629
    135  OD1       19.4470   24.4120   58.2820 O.2   240  ASN240     -0.2716
    136  ND2       20.3770   22.4820   57.5550 N.am  240  ASN240     -0.0877
    137  N         11.6150   23.5720   60.2940 N.3   242  LEU242     -0.1245
    138  CA        10.7980   24.7150   60.6690 C.3   242  LEU242      0.1561
    139  C          9.5340   24.2130   61.3310 C.2   242  LEU242      0.2260
    140  O          9.0940   23.1300   61.0430 O.2   242  LEU242     -0.2867
    141  CB        10.4860   25.5270   59.4010 C.3   242  LEU242      0.0270
    142  CG        11.7060   26.0660   58.6490 C.3   242  LEU242      0.0019
    143  CD1       11.2740   26.6400   57.2170 C.3   242  LEU242      0.0001
    144  CD2       12.4800   27.0870   59.4740 C.3   242  LEU242      0.0001
    145  N         13.3980   21.8390   55.7250 N.3   252  SER252     -0.1202
    146  CA        13.7780   22.9520   54.8650 C.3   252  SER252      0.2020
    147  C         15.2680   22.8100   54.4700 C.2   252  SER252      0.2618
    148  O         15.8530   21.7350   54.5670 O.2   252  SER252     -0.2717
    149  CB        13.4420   24.2830   55.5640 C.3   252  SER252      0.2103
    150  OG        13.6470   25.4410   54.7370 O.3   252  SER252     -0.2182
    151  N         15.8450   23.8980   54.0030 N.am  253  ASP253     -0.1973
    152  CA        17.2050   23.9580   53.4530 C.3   253  ASP253      0.1709
    153  C         17.6570   22.7630   52.5920 C.2   253  ASP253      0.2293
    154  O         18.4780   21.9540   52.9780 O.2   253  ASP253     -0.2864
    155  CB        18.2740   24.3070   54.4690 C.3   253  ASP253      0.1436
    156  CG        19.4960   24.9490   53.7920 C.2   253  ASP253      0.3671
    157  OD1       19.6430   24.8070   52.5400 O.co2 253  ASP253     -0.2456
    158  OD2       20.2560   25.6760   54.4730 O.co2 253  ASP253     -0.2456
@<TRIPOS>BOND
     1    49    50    1
     2    51    52    2
     3    51    50    1
     4    50    53    1
     5    53    54    1
     6    43    42    2
     7    54    55    1
     8    42    41    1
     9    65    66    1
    10    47    48    1
    11    47    46    1
    12    70    71    1
    13    70    69    1
    14    46    45    1
    15    44    45    1
    16    44    41    1
    17    66    69    1
    18    66    67    1
    19    55    56   ar
    20    55    57   ar
    21    40    41    1
    22    71    72    1
    23    38    37    2
    24    61    60    2
    25    67    68    2
    26    67    73   am
    27    73    74    1
    28    60    59    1
    29    37    36    1
    30    74    77    1
    31    74    75    1
    32    77    78    1
    33    35    36    1
    34    63    62    1
    35   157   156   ar
    36   153   154    2
    37   153   152    1
    38    36    39    1
    39    59    62    1
    40    59    58    1
    41    78    79    1
    42    62    64    1
    43    75    76    2
    44    75    82   am
    45    81    79   ar
    46   152   151    1
    47   152   155    1
    48    79    80   ar
    49    34    32    1
    50    29    28    1
    51    29    32    1
    52    29    30    1
    53   156   155    1
    54   156   158   ar
    55    82    83    1
    56   151   147   am
    57    27    26    2
    58    26    25    1
    59    33    32    1
    60    30    31    2
    61   147   148    2
    62   147   146    1
    63   150   149    1
    64    25    24    1
    65   146   149    1
    66   146   145    1
    67    83    86    1
    68    83    84    1
    69    24    15   am
    70    86    87    1
    71    84    85    2
    72    84    90   am
    73    15    14    1
    74    15    16    2
    75    88    87    1
    76    87    89    1
    77    23    21    1
    78    12    11    2
    79    96    94    1
    80    14    17    1
    81    14    13    1
    82     8     6    1
    83    90    91    1
    84   143   142    1
    85    20    21    2
    86    20    19    1
    87     6     5    1
    88    17    18    1
    89    21    22    1
    90   136   134   am
    91    11    13   am
    92    11    10    1
    93   132   131    2
    94     1     2    1
    95   134   133    1
    96   134   135    2
    97    19    18    1
    98    94    91    1
    99    94    95    1
   100    91    92    1
   101   133   130    1
   102     9    10    1
   103     9     3   am
   104     7     5    1
   105   142   141    1
   106   142   144    1
   107     5     2    1
   108     2     3    1
   109   131   130    1
   110   105   103   am
   111   130   129    1
   112     3     4    2
   113   141   138    1
   114    92    93    2
   115    92    97   am
   116   102   103    1
   117   102   101    1
   118   103   104    2
   119    97    98    1
   120   137   138    1
   121   129   120   am
   122   138   139    1
   123   127   126    1
   124   121   120    2
   125    98   101    1
   126    98    99    1
   127   140   139    2
   128   120   119    1
   129   126   128    1
   130   126   125    2
   131   123   124    1
   132   123   122    1
   133    99   100    2
   134   124   125    1
   135   119   122    1
   136   119   118    1
   137   107   106    1
   138   107   108    1
   139   109   108    2
   140   114   111    1
   141   114   115    1
   142   108   110   am
   143   111   110    1
   144   111   112    1
   145   115   117   ar
   146   115   116   ar
   147   112   113    2
