@<TRIPOS>MOLECULE
tmp/3bkiD00.pdb
 125 119 0 0 0
SMALL
GASTEIGER

@<TRIPOS>ATOM
      1  N          0.6490  -13.9440  -41.2510 N.3     9  GLU9       -0.1245
      2  CA         0.4580  -13.1540  -40.0340 C.3     9  GLU9        0.1567
      3  C         -0.6500  -13.9340  -39.2810 C.2     9  GLU9        0.2260
      4  O         -1.7220  -14.1710  -39.8330 O.2     9  GLU9       -0.2867
      5  CB        -0.0250  -11.7480  -40.3920 C.3     9  GLU9        0.0388
      6  CG        -0.2520  -10.8270  -39.1980 C.3     9  GLU9        0.1160
      7  CD         1.0220  -10.1000  -38.7740 C.2     9  GLU9        0.3649
      8  OE1        1.3160   -9.0030  -39.3430 O.co2   9  GLU9       -0.2457
      9  OE2        1.7350  -10.6370  -37.8890 O.co2   9  GLU9       -0.2457
     10  N         -4.3760  -14.9110  -39.2970 N.3    12  TYR12      -0.1241
     11  CA        -4.9040  -14.8080  -40.6580 C.3    12  TYR12       0.1605
     12  C         -4.5040  -15.9670  -41.6020 C.2    12  TYR12       0.2264
     13  O         -5.3580  -16.6220  -42.2360 O.2    12  TYR12      -0.2867
     14  CB        -4.4980  -13.4500  -41.2110 C.3    12  TYR12       0.0534
     15  CG        -4.9650  -12.3320  -40.2910 C.ar   12  TYR12      -0.0201
     16  CD1       -6.3050  -11.9170  -40.2850 C.ar   12  TYR12      -0.0009
     17  CD2       -4.0680  -11.7180  -39.4120 C.ar   12  TYR12      -0.0009
     18  CE1       -6.7450  -10.9140  -39.4190 C.ar   12  TYR12       0.0417
     19  CE2       -4.4920  -10.7140  -38.5350 C.ar   12  TYR12       0.0417
     20  CZ        -5.8320  -10.3200  -38.5450 C.ar   12  TYR12       0.1957
     21  OH        -6.2420   -9.3300  -37.6860 O.3    12  TYR12      -0.2866
     22  N          3.2360   -5.8590  -46.3870 N.3    57  TYR57      -0.1241
     23  CA         1.8530   -5.4800  -46.7120 C.3    57  TYR57       0.1605
     24  C          1.8030   -4.5950  -47.9850 C.2    57  TYR57       0.2264
     25  O          1.0550   -4.8720  -48.9470 O.2    57  TYR57      -0.2867
     26  CB         1.2410   -4.7150  -45.5040 C.3    57  TYR57       0.0534
     27  CG         0.8350   -5.6340  -44.3730 C.ar   57  TYR57      -0.0201
     28  CD1        1.6130   -5.7620  -43.2130 C.ar   57  TYR57      -0.0009
     29  CD2       -0.2910   -6.4400  -44.5010 C.ar   57  TYR57      -0.0009
     30  CE1        1.2550   -6.6800  -42.2190 C.ar   57  TYR57       0.0417
     31  CE2       -0.6290   -7.3550  -43.5290 C.ar   57  TYR57       0.0417
     32  CZ         0.1300   -7.4720  -42.3950 C.ar   57  TYR57       0.1957
     33  OH        -0.2650   -8.3930  -41.4320 O.3    57  TYR57      -0.2866
     34  N         -4.9520   -9.1810  -43.9620 N.3    85  PRO85      -0.2102
     35  CA        -5.3290   -8.0770  -43.0520 C.3    85  PRO85       0.1504
     36  C         -4.5940   -6.8210  -43.5530 C.2    85  PRO85       0.2576
     37  O         -3.6970   -6.2930  -42.9070 O.2    85  PRO85      -0.2718
     38  CB        -4.7990   -8.5440  -41.6880 C.3    85  PRO85       0.0282
     39  CG        -3.6320   -9.4120  -42.0480 C.3    85  PRO85       0.0208
     40  CD        -4.1620  -10.2000  -43.2300 C.3    85  PRO85       0.0893
     41  N         -5.0010   -6.3650  -44.7220 N.am   86  LEU86      -0.1966
     42  CA        -4.4010   -5.2300  -45.4060 C.3    86  LEU86       0.1728
     43  C         -5.3140   -4.0910  -45.1520 C.2    86  LEU86       0.2616
     44  O         -6.5090   -4.1210  -45.5820 O.2    86  LEU86      -0.2715
     45  CB        -4.3460   -5.4950  -46.9140 C.3    86  LEU86       0.0311
     46  CG        -3.6790   -4.4280  -47.7870 C.3    86  LEU86       0.0022
     47  CD1       -2.1790   -4.3500  -47.4540 C.3    86  LEU86       0.0001
     48  CD2       -3.8820   -4.7930  -49.2870 C.3    86  LEU86       0.0001
     49  N         -4.7820   -3.0900  -44.4630 N.am   87  THR87      -0.1951
     50  CA        -5.5890   -1.9480  -44.1190 C.3    87  THR87       0.1897
     51  C         -5.9020   -1.0790  -45.3200 C.2    87  THR87       0.2313
     52  O         -5.0510   -0.8620  -46.1960 O.2    87  THR87      -0.2863
     53  CB        -4.9170   -1.1320  -42.9840 C.3    87  THR87       0.1794
     54  OG1       -3.7270   -0.5100  -43.4580 O.3    87  THR87      -0.2208
     55  CG2       -4.5110   -2.0460  -41.9180 C.3    87  THR87       0.0378
     56  N         -2.8270    3.5690  -50.7410 N.3    92  ARG92      -0.1245
     57  CA        -3.0200    2.2780  -51.3950 C.3    92  ARG92       0.1563
     58  C         -4.2020    2.2880  -52.3640 C.2    92  ARG92       0.2260
     59  O         -4.1040    1.7610  -53.4800 O.2    92  ARG92      -0.2867
     60  CB        -3.2610    1.2090  -50.3400 C.3    92  ARG92       0.0307
     61  CG        -2.0220    0.8400  -49.5630 C.3    92  ARG92       0.0489
     62  CD        -2.3090   -0.2300  -48.5350 C.3    92  ARG92       0.2205
     63  NE        -1.0740   -0.5920  -47.8150 N.pl3  92  ARG92      -0.0865
     64  CZ        -1.0340   -0.9880  -46.5490 C.cat  92  ARG92       0.5346
     65  NH1       -2.1570   -1.0700  -45.8470 N.pl3  92  ARG92       0.1354
     66  NH2        0.1320   -1.2930  -45.9750 N.pl3  92  ARG92       0.1354
     67  N          5.4910    1.0730  -33.6590 N.3   134  LEU134     -0.1245
     68  CA         6.3490    0.5580  -34.7440 C.3   134  LEU134      0.1561
     69  C          7.1330    1.7800  -35.2490 C.2   134  LEU134      0.2260
     70  O          6.6020    2.8870  -35.3350 O.2   134  LEU134     -0.2867
     71  CB         5.4780   -0.0160  -35.8940 C.3   134  LEU134      0.0270
     72  CG         6.2180   -0.7020  -37.0610 C.3   134  LEU134      0.0019
     73  CD1        6.9040   -1.9810  -36.5170 C.3   134  LEU134      0.0001
     74  CD2        5.2570   -1.0220  -38.2690 C.3   134  LEU134      0.0001
     75  N          6.2770   -5.6360  -35.4100 N.3   170  THR170     -0.1218
     76  CA         5.1760   -5.8280  -34.4580 C.3   170  THR170      0.1862
     77  C          5.5760   -6.8890  -33.4620 C.2   170  THR170      0.2287
     78  O          5.3590   -6.7250  -32.2570 O.2   170  THR170     -0.2866
     79  CB         3.8690   -6.2740  -35.1880 C.3   170  THR170      0.1770
     80  OG1        3.6020   -5.3460  -36.2430 O.3   170  THR170     -0.2211
     81  CG2        2.6530   -6.3090  -34.2140 C.3   170  THR170      0.0375
     82  N         -0.5250   -0.6720  -30.8960 N.3   188  LEU188     -0.1231
     83  CA        -0.6520   -1.4670  -32.1250 C.3   188  LEU188      0.1693
     84  C         -2.1340   -1.6750  -32.4770 C.2   188  LEU188      0.2591
     85  O         -3.0300   -1.2920  -31.7110 O.2   188  LEU188     -0.2718
     86  CB         0.0500   -2.8330  -31.9550 C.3   188  LEU188      0.0284
     87  CG        -0.7610   -3.8450  -31.1510 C.3   188  LEU188      0.0019
     88  CD1       -0.0440   -5.2180  -31.2420 C.3   188  LEU188      0.0001
     89  CD2       -0.9260   -3.4020  -29.6340 C.3   188  LEU188      0.0001
     90  N         -2.4050   -2.3030  -33.5890 N.am  189  GLU189     -0.1979
     91  CA        -3.7630   -2.5090  -33.9740 C.3   189  GLU189      0.1602
     92  C         -4.5240   -3.3880  -32.9570 C.2   189  GLU189      0.2287
     93  O         -4.0180   -4.3300  -32.4710 O.2   189  GLU189     -0.2864
     94  CB        -3.8040   -3.1910  -35.2930 C.3   189  GLU189      0.0415
     95  CG        -3.2300   -2.4110  -36.4210 C.3   189  GLU189      0.1163
     96  CD        -3.2790   -3.2440  -37.6570 C.2   189  GLU189      0.3649
     97  OE1       -3.0880   -4.4650  -37.5230 O.co2 189  GLU189     -0.2457
     98  OE2       -3.4930   -2.7390  -38.7500 O.co2 189  GLU189     -0.2457
     99  N         -6.8320   -5.5650  -33.3050 N.3   191  THR191     -0.1203
    100  CA        -6.9770   -6.9850  -33.6500 C.3   191  THR191      0.1994
    101  C         -5.8030   -7.8690  -33.2030 C.2   191  THR191      0.2617
    102  O         -5.9760   -9.0110  -32.7160 O.2   191  THR191     -0.2717
    103  CB        -7.0980   -7.1530  -35.1770 C.3   191  THR191      0.1784
    104  OG1       -6.0840   -6.3690  -35.8170 O.3   191  THR191     -0.2211
    105  CG2       -8.4700   -6.6880  -35.6500 C.3   191  THR191      0.0376
    106  N         -4.6200   -7.4010  -33.4850 N.am  192  MET192     -0.1979
    107  CA        -3.4240   -8.0860  -33.0280 C.3   192  MET192      0.1605
    108  C         -3.3620   -8.1300  -31.4830 C.2   192  MET192      0.2287
    109  O         -3.0780   -9.1110  -30.8900 O.2   192  MET192     -0.2864
    110  CB        -2.1560   -7.4500  -33.5810 C.3   192  MET192      0.0413
    111  CG        -0.9090   -8.0950  -33.0880 C.3   192  MET192      0.0598
    112  SD        -0.7260   -9.7950  -33.6340 S.3   192  MET192     -0.1393
    113  CE        -0.4230   -9.6380  -35.4280 C.3   192  MET192      0.0692
    114  N         -9.7730   -3.6060  -42.5310 N.3   216  TYR216     -0.1241
    115  CA        -9.0070   -4.4070  -43.5040 C.3   216  TYR216      0.1605
    116  C         -9.9640   -4.6390  -44.6840 C.2   216  TYR216      0.2264
    117  O        -11.1730   -4.8510  -44.4910 O.2   216  TYR216     -0.2867
    118  CB        -8.6560   -5.8000  -42.9290 C.3   216  TYR216      0.0534
    119  CG        -7.7870   -5.7730  -41.7020 C.ar  216  TYR216     -0.0201
    120  CD1       -6.7280   -4.8600  -41.5930 C.ar  216  TYR216     -0.0009
    121  CD2       -7.9530   -6.7110  -40.6910 C.ar  216  TYR216     -0.0009
    122  CE1       -5.8530   -4.8900  -40.4780 C.ar  216  TYR216      0.0417
    123  CE2       -7.0980   -6.7690  -39.5990 C.ar  216  TYR216      0.0417
    124  CZ        -6.0540   -5.8550  -39.4850 C.ar  216  TYR216      0.1957
    125  OH        -5.2400   -5.8410  -38.3690 O.3   216  TYR216     -0.2866
@<TRIPOS>BOND
     1    59    58    2
     2    58    57    1
     3    57    56    1
     4    57    60    1
     5    60    61    1
     6    61    62    1
     7    48    46    1
     8    25    24    2
     9    62    63    1
    10    24    23    1
    11    63    64    2
    12    46    47    1
    13    46    45    1
    14    45    42    1
    15    23    22    1
    16    23    26    1
    17    64    66    1
    18    64    65    1
    19    52    51    2
    20    44    43    2
    21    26    27    1
    22    42    43    1
    23    42    41    1
    24    51    50    1
    25    43    49   am
    26    41    36   am
    27   116   117    2
    28   116   115    1
    29    29    27   ar
    30    29    31   ar
    31    49    50    1
    32    27    28   ar
    33    50    53    1
    34    34    40    1
    35    34    35    1
    36    36    35    1
    37    36    37    2
    38    31    32   ar
    39   115   118    1
    40   115   114    1
    41    54    53    1
    42    40    39    1
    43    28    30   ar
    44    35    38    1
    45    53    55    1
    46   118   119    1
    47    32    30   ar
    48    32    33    1
    49    13    12    2
    50    39    38    1
    51   119   120   ar
    52   119   121   ar
    53    12    11    1
    54   120   122   ar
    55     1     2    1
    56    14    11    1
    57    14    15    1
    58   121   123   ar
    59    11    10    1
    60   122   124   ar
    61     5     2    1
    62     5     6    1
    63    15    16   ar
    64    15    17   ar
    65    16    18   ar
    66     2     3    1
    67     4     3    2
    68   123   124   ar
    69   124   125    1
    70    18    20   ar
    71    17    19   ar
    72     8     7   ar
    73     6     7    1
    74     7     9   ar
    75    98    96   ar
    76    20    19   ar
    77    20    21    1
    78    74    72    1
    79    96    97   ar
    80    96    95    1
    81    72    73    1
    82    72    71    1
    83    95    94    1
    84    80    79    1
    85    71    68    1
    86   104   103    1
    87   105   103    1
    88   113   112    1
    89    75    76    1
    90    70    69    2
    91    94    91    1
    92    69    68    1
    93    79    76    1
    94    79    81    1
    95   103   100    1
    96    68    67    1
    97    76    77    1
    98    91    90    1
    99    91    92    1
   100   100    99    1
   101   100   101    1
   102   112   111    1
   103    90    84   am
   104   110   111    1
   105   110   107    1
   106   106   101   am
   107   106   107    1
   108    77    78    2
   109   101   102    2
   110   107   108    1
   111    92    93    2
   112    84    83    1
   113    84    85    2
   114    83    86    1
   115    83    82    1
   116    86    87    1
   117   108   109    2
   118    88    87    1
   119    87    89    1
