@<TRIPOS>MOLECULE
tmp/3bkjA00.pdb
 77 75 0 0 0
SMALL
GASTEIGER

@<TRIPOS>ATOM
      1  N        -10.5570   26.5450   37.3030 N.3    30  VAL30      -0.1231
      2  CA       -11.1530   26.4500   38.6310 C.3    30  VAL30       0.1692
      3  C        -12.6320   26.0990   38.4810 C.2    30  VAL30       0.2592
      4  O        -13.3900   26.8420   37.8660 O.2    30  VAL30      -0.2718
      5  CB       -11.0230   27.7760   39.4360 C.3    30  VAL30       0.0266
      6  CG1      -11.6040   27.5630   40.8240 C.3    30  VAL30       0.0020
      7  CG2       -9.5500   28.1990   39.5190 C.3    30  VAL30       0.0020
      8  N        -13.0370   24.9590   39.0470 N.am   31  HIS31      -0.1962
      9  CA       -14.4190   24.4910   39.0150 C.3    31  HIS31       0.1787
     10  C        -15.2580   25.2380   40.0530 C.2    31  HIS31       0.2621
     11  O        -14.7230   25.7300   41.0460 O.2    31  HIS31      -0.2715
     12  CB       -14.4310   22.9700   39.2940 C.3    31  HIS31       0.0785
     13  CG       -15.7660   22.3230   39.1010 C.ar   31  HIS31       0.0821
     14  ND1      -16.1320   21.6650   37.9440 N.ar   31  HIS31      -0.2267
     15  CD2      -16.8240   22.2180   39.9350 C.ar   31  HIS31       0.1154
     16  CE1      -17.3600   21.1980   38.0760 C.ar   31  HIS31       0.1986
     17  NE2      -17.8010   21.5190   39.2750 N.ar   31  HIS31      -0.2212
     18  N        -16.5520   25.3500   39.7970 N.am   32  SER32      -0.1936
     19  CA       -17.4490   26.0050   40.7400 C.3    32  SER32       0.2055
     20  C        -17.4390   25.3700   42.1320 C.2    32  SER32       0.2643
     21  O        -17.7120   26.0530   43.1320 O.2    32  SER32      -0.2714
     22  CB       -18.8670   26.0300   40.1900 C.3    32  SER32       0.2130
     23  OG       -19.3560   24.7240   40.0330 O.3    32  SER32      -0.2179
     24  N        -17.1280   24.0810   42.2300 N.am   33  ASN33      -0.1971
     25  CA       -17.0500   23.4270   43.5430 C.3    33  ASN33       0.1688
     26  C        -15.8320   23.7940   44.3880 C.2    33  ASN33       0.2292
     27  O        -15.7830   23.4640   45.5720 O.2    33  ASN33      -0.2864
     28  CB       -17.2320   21.8930   43.4350 C.3    33  ASN33       0.1181
     29  CG       -16.0050   21.1550   42.9240 C.2    33  ASN33       0.2629
     30  OD1      -14.9800   21.7390   42.6340 O.2    33  ASN33      -0.2716
     31  ND2      -16.1140   19.8240   42.8440 N.am   33  ASN33      -0.0877
     32  N         -9.3460   21.0040   38.5730 N.3    37  TYR37      -0.1241
     33  CA        -9.1130   19.6480   38.0730 C.3    37  TYR37       0.1605
     34  C         -8.0800   19.6400   36.9660 C.2    37  TYR37       0.2264
     35  O         -8.4060   19.4650   35.8000 O.2    37  TYR37      -0.2867
     36  CB       -10.4330   19.0420   37.6130 C.3    37  TYR37       0.0534
     37  CG       -11.3750   18.7970   38.7540 C.ar   37  TYR37      -0.0201
     38  CD1      -12.3410   19.7240   39.1010 C.ar   37  TYR37      -0.0009
     39  CD2      -11.2680   17.6470   39.5270 C.ar   37  TYR37      -0.0009
     40  CE1      -13.2150   19.4700   40.1770 C.ar   37  TYR37       0.0417
     41  CE2      -12.1540   17.3650   40.5740 C.ar   37  TYR37       0.0417
     42  CZ       -13.1060   18.3010   40.9150 C.ar   37  TYR37       0.1957
     43  OH       -13.9600   18.0730   41.9820 O.3    37  TYR37      -0.2866
     44  N        -10.2540   18.5460   33.7360 N.3    96  ALA96      -0.1231
     45  CA       -11.5580   17.8960   33.8570 C.3    96  ALA96       0.1694
     46  C        -12.5650   18.7620   34.5920 C.2    96  ALA96       0.2593
     47  O        -13.4490   18.2600   35.2840 O.2    96  ALA96      -0.2718
     48  CB       -11.4280   16.5650   34.5710 C.3    96  ALA96       0.0304
     49  N        -12.4320   20.0710   34.4250 N.am   97  SER97      -0.1938
     50  CA       -13.4000   21.0190   34.9630 C.3    97  SER97       0.2055
     51  C        -14.5470   21.3580   34.0110 C.2    97  SER97       0.2643
     52  O        -15.6780   21.5990   34.4540 O.2    97  SER97      -0.2714
     53  CB       -12.6860   22.3060   35.3250 C.3    97  SER97       0.2130
     54  OG       -11.8600   22.0900   36.4330 O.3    97  SER97      -0.2179
     55  N        -14.2370   21.4230   32.7220 N.am   98  LEU98      -0.1963
     56  CA       -15.1990   21.8200   31.7000 C.3    98  LEU98       0.1728
     57  C        -15.2980   20.7660   30.5840 C.2    98  LEU98       0.2616
     58  O        -14.2870   20.1350   30.2240 O.2    98  LEU98      -0.2715
     59  CB       -14.7620   23.1680   31.1140 C.3    98  LEU98       0.0311
     60  CG       -14.8510   24.3340   32.1060 C.3    98  LEU98       0.0022
     61  CD1      -13.9260   25.4920   31.7230 C.3    98  LEU98       0.0001
     62  CD2      -16.2910   24.8280   32.2050 C.3    98  LEU98       0.0001
     63  N        -16.5030   20.6110   30.0280 N.am   99  VAL99      -0.1977
     64  CA       -16.7490   19.6990   28.9110 C.3    99  VAL99       0.1596
     65  C        -16.6310   20.4540   27.5750 C.2    99  VAL99       0.2287
     66  O        -17.2860   21.4880   27.3960 O.2    99  VAL99      -0.2864
     67  CB       -18.1680   19.0450   29.0550 C.3    99  VAL99       0.0276
     68  CG1      -18.5460   18.1860   27.8570 C.3    99  VAL99       0.0022
     69  CG2      -18.2650   18.2400   30.3620 C.3    99  VAL99       0.0022
     70  N        -13.7220   17.5550   28.2680 N.3   101  LEU101     -0.1245
     71  CA       -12.4510   17.4120   28.9560 C.3   101  LEU101      0.1561
     72  C        -11.3730   17.3780   27.8990 C.2   101  LEU101      0.2260
     73  O        -11.5240   16.7230   26.8640 O.2   101  LEU101     -0.2867
     74  CB       -12.3880   16.1310   29.7890 C.3   101  LEU101      0.0270
     75  CG       -13.6620   15.7530   30.5720 C.3   101  LEU101      0.0019
     76  CD1      -13.4500   14.5370   31.4510 C.3   101  LEU101      0.0001
     77  CD2      -14.2570   16.9070   31.3410 C.3   101  LEU101      0.0001
@<TRIPOS>BOND
     1    73    72    2
     2    66    65    2
     3    65    64    1
     4    68    67    1
     5    72    71    1
     6    70    71    1
     7    64    67    1
     8    64    63    1
     9    71    74    1
    10    67    69    1
    11    74    75    1
    12    63    57   am
    13    58    57    2
    14    75    77    1
    15    75    76    1
    16    57    56    1
    17    59    56    1
    18    59    60    1
    19    56    55    1
    20    61    60    1
    21    60    62    1
    22    55    51   am
    23    44    45    1
    24    45    48    1
    25    45    46    1
    26    51    52    2
    27    51    50    1
    28    49    46   am
    29    49    50    1
    30    46    47    2
    31    50    53    1
    32    53    54    1
    33    35    34    2
    34    34    33    1
    35     1     2    1
    36    36    33    1
    37    36    37    1
    38     4     3    2
    39    14    16   ar
    40    14    13   ar
    41    33    32    1
    42    16    17   ar
    43     3     2    1
    44     3     8   am
    45     2     5    1
    46    37    38   ar
    47    37    39   ar
    48     9     8    1
    49     9    12    1
    50     9    10    1
    51    38    40   ar
    52    13    12    1
    53    13    15   ar
    54    17    15   ar
    55     5     7    1
    56     5     6    1
    57    39    41   ar
    58    18    10   am
    59    18    19    1
    60    23    22    1
    61    10    11    2
    62    40    42   ar
    63    22    19    1
    64    41    42   ar
    65    19    20    1
    66    42    43    1
    67    20    24   am
    68    20    21    2
    69    24    25    1
    70    30    29    2
    71    31    29   am
    72    29    28    1
    73    28    25    1
    74    25    26    1
    75    26    27    2
