@<TRIPOS>MOLECULE
tmp/3bkkA03.pdb
 262 258 0 0 0
SMALL
GASTEIGER

@<TRIPOS>ATOM
      1  N         57.7160   51.1790   53.8840 N.3   106  GLU106     -0.1245
      2  CA        56.3110   51.5380   53.7240 C.3   106  GLU106      0.1567
      3  C         56.0470   53.0060   54.0760 C.2   106  GLU106      0.2260
      4  O         55.3380   53.7000   53.3520 O.2   106  GLU106     -0.2867
      5  CB        55.4270   50.6270   54.5830 C.3   106  GLU106      0.0388
      6  CG        53.9270   50.9050   54.4400 C.3   106  GLU106      0.1160
      7  CD        53.3680   50.5620   53.0560 C.2   106  GLU106      0.3649
      8  OE1       53.1570   49.3590   52.7690 O.co2 106  GLU106     -0.2457
      9  OE2       53.1430   51.5030   52.2600 O.co2 106  GLU106     -0.2457
     10  N         51.1220   51.4850   33.7080 N.3   244  GLN244     -0.1231
     11  CA        50.6070   50.1290   33.8970 C.3   244  GLN244      0.1698
     12  C         49.2220   50.0040   33.2800 C.2   244  GLN244      0.2592
     13  O         48.8170   48.9130   32.8790 O.2   244  GLN244     -0.2718
     14  CB        50.5620   49.7510   35.3870 C.3   244  GLN244      0.0381
     15  CG        49.6170   50.5580   36.2470 C.3   244  GLN244      0.0905
     16  CD        49.7660   50.1960   37.7190 C.2   244  GLN244      0.2608
     17  OE1       50.8670   50.2110   38.2510 O.2   244  GLN244     -0.2717
     18  NE2       48.6600   49.8640   38.3760 N.am  244  GLN244     -0.0878
     19  N         48.5060   51.1270   33.2250 N.am  245  THR245     -0.1953
     20  CA        47.1720   51.2210   32.6140 C.3   245  THR245      0.1897
     21  C         47.1660   52.5370   31.8080 C.2   245  THR245      0.2313
     22  O         47.6810   53.5560   32.2650 O.2   245  THR245     -0.2863
     23  CB        46.0380   51.2110   33.6860 C.3   245  THR245      0.1794
     24  OG1       46.3350   52.1540   34.7200 O.3   245  THR245     -0.2208
     25  CG2       45.9020   49.8130   34.3060 C.3   245  THR245      0.0378
     26  N         47.5910   54.0020   49.3820 N.3   316  HIS316     -0.1226
     27  CA        47.3630   52.8490   48.5240 C.3   316  HIS316      0.1752
     28  C         46.2240   51.9770   49.0430 C.2   316  HIS316      0.2596
     29  O         46.2850   51.4460   50.1510 O.2   316  HIS316     -0.2718
     30  CB        48.6550   52.0400   48.4020 C.3   316  HIS316      0.0759
     31  CG        48.6240   51.1750   47.1340 C.ar  316  HIS316      0.0818
     32  ND1       49.0550   51.6560   45.9170 N.ar  316  HIS316     -0.2268
     33  CD2       48.1810   49.9160   46.9070 C.ar  316  HIS316      0.1154
     34  CE1       48.8760   50.7300   44.9920 C.ar  316  HIS316      0.1986
     35  NE2       48.3470   49.6650   45.5670 N.ar  316  HIS316     -0.2212
     36  N         45.1870   51.8390   48.2270 N.am  317  ALA317     -0.1966
     37  CA        44.0050   51.0580   48.5670 C.3   317  ALA317      0.1728
     38  C         44.2790   49.6230   49.0260 C.2   317  ALA317      0.2617
     39  O         45.1550   48.9370   48.4850 O.2   317  ALA317     -0.2715
     40  CB        43.0500   51.0410   47.3760 C.3   317  ALA317      0.0334
     41  N         43.5000   49.1770   50.0130 N.am  318  SER318     -0.1936
     42  CA        43.6130   47.8320   50.5690 C.3   318  SER318      0.2055
     43  C         42.3540   47.4300   51.3510 C.2   318  SER318      0.2643
     44  O         41.6710   48.2750   51.9440 O.2   318  SER318     -0.2714
     45  CB        44.8450   47.7350   51.4800 C.3   318  SER318      0.2130
     46  OG        44.8250   48.7050   52.5190 O.3   318  SER318     -0.2179
     47  N         42.0510   46.1340   51.3390 N.am  319  ALA319     -0.1963
     48  CA        40.8910   45.5960   52.0450 C.3   319  ALA319      0.1728
     49  C         41.4180   44.8270   53.2480 C.2   319  ALA319      0.2616
     50  O         42.4220   44.1240   53.1440 O.2   319  ALA319     -0.2715
     51  CB        40.0950   44.6760   51.1240 C.3   319  ALA319      0.0334
     52  N         40.7310   44.9510   54.3800 N.am  320  TRP320     -0.1974
     53  CA        41.1720   44.3240   55.6210 C.3   320  TRP320      0.1640
     54  C         40.2250   43.3320   56.2960 C.2   320  TRP320      0.2290
     55  O         39.0430   43.6090   56.5020 O.2   320  TRP320     -0.2864
     56  CB        41.5230   45.4120   56.6460 C.3   320  TRP320      0.0576
     57  CG        42.6140   46.3370   56.2170 C.ar  320  TRP320      0.0006
     58  CD1       42.6310   47.1210   55.1050 C.ar  320  TRP320      0.0946
     59  CD2       43.8530   46.5750   56.8970 C.ar  320  TRP320      0.0152
     60  NE1       43.8020   47.8330   55.0440 N.ar  320  TRP320     -0.2442
     61  CE2       44.5720   47.5170   56.1330 C.ar  320  TRP320      0.0810
     62  CE3       44.4250   46.0830   58.0780 C.ar  320  TRP320      0.0012
     63  CZ2       45.8400   47.9810   56.5090 C.ar  320  TRP320      0.0191
     64  CZ3       45.6870   46.5430   58.4540 C.ar  320  TRP320      0.0001
     65  CH2       46.3790   47.4830   57.6690 C.ar  320  TRP320      0.0015
     66  N         36.2340   51.8750   39.8920 N.3   342  VAL342     -0.1231
     67  CA        36.6640   50.5280   39.5130 C.3   342  VAL342      0.1692
     68  C         37.5530   49.9700   40.6260 C.2   342  VAL342      0.2591
     69  O         37.4730   48.7920   40.9430 O.2   342  VAL342     -0.2718
     70  CB        37.4550   50.5210   38.1820 C.3   342  VAL342      0.0266
     71  CG1       38.0630   49.1510   37.9550 C.3   342  VAL342      0.0020
     72  CG2       36.5310   50.8710   37.0100 C.3   342  VAL342      0.0020
     73  N         38.3980   50.8200   41.2100 N.am  343  VAL343     -0.1980
     74  CA        39.2660   50.4110   42.3100 C.3   343  VAL343      0.1595
     75  C         38.3820   50.0560   43.5090 C.2   343  VAL343      0.2287
     76  O         38.6280   49.0660   44.2010 O.2   343  VAL343     -0.2864
     77  CB        40.2470   51.5410   42.7220 C.3   343  VAL343      0.0276
     78  CG1       41.0780   51.1120   43.9350 C.3   343  VAL343      0.0022
     79  CG2       41.1760   51.8630   41.5680 C.3   343  VAL343      0.0022
     80  N         37.0810   46.6780   43.0620 N.3   346  HIS346     -0.1226
     81  CA        38.1850   45.7570   43.2790 C.3   346  HIS346      0.1752
     82  C         38.3090   45.4700   44.7760 C.2   346  HIS346      0.2595
     83  O         38.3240   44.3150   45.1970 O.2   346  HIS346     -0.2718
     84  CB        39.4770   46.3850   42.7720 C.3   346  HIS346      0.0759
     85  CG        40.7060   45.6120   43.1310 C.ar  346  HIS346      0.0818
     86  ND1       41.1440   44.5270   42.4020 N.ar  346  HIS346     -0.2268
     87  CD2       41.5850   45.7630   44.1500 C.ar  346  HIS346      0.1154
     88  CE1       42.2420   44.0440   42.9560 C.ar  346  HIS346      0.1986
     89  NE2       42.5310   44.7760   44.0180 N.ar  346  HIS346     -0.2212
     90  N         38.3870   46.5310   45.5750 N.am  347  GLU347     -0.1979
     91  CA        38.5180   46.3820   47.0150 C.3   347  GLU347      0.1602
     92  C         37.3210   45.6260   47.6040 C.2   347  GLU347      0.2287
     93  O         37.4890   44.7340   48.4330 O.2   347  GLU347     -0.2864
     94  CB        38.6500   47.7510   47.6960 C.3   347  GLU347      0.0415
     95  CG        39.9060   48.5410   47.3510 C.3   347  GLU347      0.1163
     96  CD        41.1860   47.7230   47.4550 C.2   347  GLU347      0.3649
     97  OE1       41.3090   46.8930   48.3840 O.co2 347  GLU347     -0.2457
     98  OE2       42.0770   47.9230   46.6030 O.co2 347  GLU347     -0.2457
     99  N         37.5180   41.9940   47.5170 N.3   350  HIS350     -0.1241
    100  CA        38.2980   41.3660   48.5780 C.3   350  HIS350      0.1621
    101  C         37.4130   41.1460   49.7980 C.2   350  HIS350      0.2264
    102  O         37.4700   40.0970   50.4440 O.2   350  HIS350     -0.2867
    103  CB        39.4700   42.2510   48.9890 C.3   350  HIS350      0.0745
    104  CG        40.5960   42.2740   48.0050 C.ar  350  HIS350      0.0817
    105  ND1       41.1450   41.1270   47.4740 N.ar  350  HIS350     -0.2268
    106  CD2       41.3190   43.3040   47.5040 C.ar  350  HIS350      0.1154
    107  CE1       42.1590   41.4490   46.6890 C.ar  350  HIS350      0.1986
    108  NE2       42.2860   42.7630   46.6900 N.ar  350  HIS350     -0.2212
    109  N         36.2780   37.8510   51.9330 N.3   354  PHE354     -0.1241
    110  CA        36.4290   37.7140   53.3880 C.3   354  PHE354      0.1605
    111  C         35.1380   37.1740   53.9980 C.2   354  PHE354      0.2264
    112  O         35.1590   36.2590   54.8240 O.2   354  PHE354     -0.2867
    113  CB        36.7180   39.0660   54.0450 C.3   354  PHE354      0.0534
    114  CG        38.0460   39.6680   53.6750 C.ar  354  PHE354     -0.0203
    115  CD1       38.2530   41.0370   53.8140 C.ar  354  PHE354     -0.0042
    116  CD2       39.0930   38.8760   53.2110 C.ar  354  PHE354     -0.0042
    117  CE1       39.4790   41.6130   53.4990 C.ar  354  PHE354     -0.0003
    118  CE2       40.3250   39.4440   52.8930 C.ar  354  PHE354     -0.0003
    119  CZ        40.5170   40.8200   53.0390 C.ar  354  PHE354     -0.0000
    120  N         46.3220   33.5860   45.2560 N.3   370  PRO370     -0.2116
    121  CA        46.2980   35.0540   45.2500 C.3   370  PRO370      0.1372
    122  C         45.6170   35.6980   44.0410 C.2   370  PRO370      0.2244
    123  O         45.0380   36.7820   44.1540 O.2   370  PRO370     -0.2868
    124  CB        47.7730   35.3920   45.3260 C.3   370  PRO370      0.0268
    125  CG        48.3320   34.3220   46.2170 C.3   370  PRO370      0.0207
    126  CD        47.5010   33.0870   46.0000 C.3   370  PRO370      0.0892
    127  N         41.7140   36.1640   44.5330 N.3   373  HIS373     -0.1226
    128  CA        41.3730   37.2380   45.4480 C.3   373  HIS373      0.1752
    129  C         41.3580   38.5760   44.7220 C.2   373  HIS373      0.2595
    130  O         40.5060   39.4200   44.9850 O.2   373  HIS373     -0.2718
    131  CB        42.3660   37.2790   46.6180 C.3   373  HIS373      0.0759
    132  CG        41.7120   37.4870   47.9450 C.ar  373  HIS373      0.0818
    133  ND1       40.8060   38.4990   48.1720 N.ar  373  HIS373     -0.2268
    134  CD2       41.7960   36.7880   49.1020 C.ar  373  HIS373      0.1154
    135  CE1       40.3550   38.4120   49.4120 C.ar  373  HIS373      0.1986
    136  NE2       40.9390   37.3820   49.9970 N.ar  373  HIS373     -0.2212
    137  N         42.2950   38.7560   43.7950 N.am  374  GLU374     -0.1979
    138  CA        42.3910   39.9940   43.0230 C.3   374  GLU374      0.1602
    139  C         41.3260   40.1070   41.9400 C.2   374  GLU374      0.2287
    140  O         40.9460   41.2080   41.5350 O.2   374  GLU374     -0.2864
    141  CB        43.7600   40.0900   42.3530 C.3   374  GLU374      0.0415
    142  CG        44.9330   40.0890   43.3170 C.3   374  GLU374      0.1163
    143  CD        44.7990   41.1550   44.3870 C.2   374  GLU374      0.3649
    144  OE1       44.2440   42.2330   44.0850 O.co2 374  GLU374     -0.2457
    145  OE2       45.2600   40.9230   45.5240 O.co2 374  GLU374     -0.2457
    146  N         37.1990   42.8230   40.1890 N.3   378  ASP378     -0.1239
    147  CA        37.3610   43.2150   38.7940 C.3   378  ASP378      0.1674
    148  C         36.2770   42.6510   37.8790 C.2   378  ASP378      0.2266
    149  O         35.8830   43.3040   36.9090 O.2   378  ASP378     -0.2867
    150  CB        38.7500   42.7990   38.2910 C.3   378  ASP378      0.1410
    151  CG        39.8670   43.6700   38.8630 C.2   378  ASP378      0.3668
    152  OD1       39.6380   44.3570   39.8820 O.co2 378  ASP378     -0.2456
    153  OD2       40.9800   43.6640   38.3030 O.co2 378  ASP378     -0.2456
    154  N         43.0480   47.0490   30.5300 N.3   417  LYS417     -0.1245
    155  CA        43.2010   45.6040   30.6180 C.3   417  LYS417      0.1561
    156  C         44.3460   44.9680   29.8430 C.2   417  LYS417      0.2260
    157  O         45.0410   44.1040   30.3770 O.2   417  LYS417     -0.2867
    158  CB        41.8790   44.9280   30.2420 C.3   417  LYS417      0.0271
    159  CG        40.7080   45.3730   31.0990 C.3   417  LYS417      0.0035
    160  CD        40.9950   45.1200   32.5710 C.3   417  LYS417      0.0206
    161  CE        39.8350   45.5290   33.4740 C.3   417  LYS417      0.1093
    162  NZ        40.1180   45.1160   34.8900 N.3   417  LYS417     -0.1314
    163  N         48.0420   46.4130   30.8320 N.3   420  PHE420     -0.1241
    164  CA        48.4730   45.9080   32.1380 C.3   420  PHE420      0.1605
    165  C         49.1580   44.5420   32.0950 C.2   420  PHE420      0.2264
    166  O         49.9520   44.2140   32.9790 O.2   420  PHE420     -0.2867
    167  CB        47.2820   45.8170   33.0950 C.3   420  PHE420      0.0534
    168  CG        47.6750   45.5790   34.5290 C.ar  420  PHE420     -0.0203
    169  CD1       48.2830   46.5870   35.2750 C.ar  420  PHE420     -0.0042
    170  CD2       47.4310   44.3520   35.1410 C.ar  420  PHE420     -0.0042
    171  CE1       48.6380   46.3730   36.6070 C.ar  420  PHE420     -0.0003
    172  CE2       47.7810   44.1320   36.4670 C.ar  420  PHE420     -0.0003
    173  CZ        48.3840   45.1420   37.2020 C.ar  420  PHE420     -0.0000
    174  N         57.2140   52.1340   43.0590 N.3   474  LYS474     -0.1231
    175  CA        55.9720   51.3940   42.8510 C.3   474  LYS474      0.1693
    176  C         55.6240   50.7160   44.1780 C.2   474  LYS474      0.2592
    177  O         56.3630   49.8540   44.6540 O.2   474  LYS474     -0.2718
    178  CB        56.1430   50.3500   41.7460 C.3   474  LYS474      0.0285
    179  CG        54.9320   49.4420   41.5560 C.3   474  LYS474      0.0035
    180  CD        53.6790   50.2350   41.1960 C.3   474  LYS474      0.0206
    181  CE        52.4810   49.3160   40.9970 C.3   474  LYS474      0.1093
    182  NZ        51.2150   50.0740   40.8190 N.3   474  LYS474     -0.1314
    183  N         54.4970   51.1260   44.7600 N.am  475  PHE475     -0.1962
    184  CA        54.0100   50.6290   46.0510 C.3   475  PHE475      0.1771
    185  C         54.4140   49.2220   46.4730 C.2   475  PHE475      0.2619
    186  O         55.0400   49.0430   47.5130 O.2   475  PHE475     -0.2715
    187  CB        52.4800   50.7190   46.1060 C.3   475  PHE475      0.0574
    188  CG        51.8830   50.1670   47.3760 C.ar  475  PHE475     -0.0200
    189  CD1       51.9040   50.9090   48.5530 C.ar  475  PHE475     -0.0042
    190  CD2       51.2820   48.9140   47.3910 C.ar  475  PHE475     -0.0042
    191  CE1       51.3260   50.4080   49.7300 C.ar  475  PHE475     -0.0003
    192  CE2       50.7060   48.4100   48.5570 C.ar  475  PHE475     -0.0003
    193  CZ        50.7270   49.1600   49.7270 C.ar  475  PHE475     -0.0000
    194  N         54.0430   48.2290   45.6710 N.am  476  HIS476     -0.1973
    195  CA        54.3310   46.8390   45.9920 C.3   476  HIS476      0.1656
    196  C         55.7990   46.4790   46.2280 C.2   476  HIS476      0.2291
    197  O         56.1010   45.4730   46.8870 O.2   476  HIS476     -0.2864
    198  CB        53.7290   45.9430   44.9090 C.3   476  HIS476      0.0771
    199  CG        52.2760   46.2010   44.6720 C.ar  476  HIS476      0.0820
    200  ND1       51.8130   47.3770   44.1230 N.ar  476  HIS476     -0.2267
    201  CD2       51.1790   45.4590   44.9550 C.ar  476  HIS476      0.1154
    202  CE1       50.4930   47.3510   44.0790 C.ar  476  HIS476      0.1986
    203  NE2       50.0830   46.1990   44.5790 N.ar  476  HIS476     -0.2212
    204  N         56.5210   47.8550   49.8250 N.3   479  SER479     -0.1217
    205  CA        55.5590   47.2190   50.7220 C.3   479  SER479      0.1889
    206  C         55.6700   45.7000   50.7520 C.2   479  SER479      0.2288
    207  O         54.9650   45.0380   51.5200 O.2   479  SER479     -0.2866
    208  CB        54.1330   47.6210   50.3450 C.3   479  SER479      0.2089
    209  OG        53.9680   49.0250   50.4510 O.3   479  SER479     -0.2183
    210  N         54.7400   43.3420   48.5850 N.3   481  VAL481     -0.1245
    211  CA        53.4830   42.6950   48.2140 C.3   481  VAL481      0.1561
    212  C         53.6740   42.0260   46.8480 C.2   481  VAL481      0.2260
    213  O         53.9640   42.7010   45.8550 O.2   481  VAL481     -0.2867
    214  CB        52.3340   43.7210   48.0860 C.3   481  VAL481      0.0252
    215  CG1       51.0830   43.0340   47.5530 C.3   481  VAL481      0.0019
    216  CG2       52.0420   44.3590   49.4400 C.3   481  VAL481      0.0019
    217  N         53.3100   40.5220   43.1370 N.3   483  TYR483     -0.1241
    218  CA        52.5960   41.1620   42.0340 C.3   483  TYR483      0.1605
    219  C         52.0440   40.2410   40.9500 C.2   483  TYR483      0.2264
    220  O         51.1030   40.6080   40.2440 O.2   483  TYR483     -0.2867
    221  CB        53.4910   42.2100   41.3720 C.3   483  TYR483      0.0534
    222  CG        52.7120   43.3920   40.8350 C.ar  483  TYR483     -0.0201
    223  CD1       52.2880   44.4210   41.6880 C.ar  483  TYR483     -0.0009
    224  CD2       52.3500   43.4560   39.4890 C.ar  483  TYR483     -0.0009
    225  CE1       51.5200   45.4840   41.2060 C.ar  483  TYR483      0.0417
    226  CE2       51.5850   44.5100   39.0000 C.ar  483  TYR483      0.0417
    227  CZ        51.1740   45.5190   39.8620 C.ar  483  TYR483      0.1957
    228  OH        50.4320   46.5570   39.3660 O.3   483  TYR483     -0.2866
    229  N         50.1140   38.0390   41.1270 N.3   485  ARG485     -0.1231
    230  CA        48.6900   37.8340   41.4030 C.3   485  ARG485      0.1694
    231  C         47.7890   38.6920   40.5060 C.2   485  ARG485      0.2592
    232  O         46.6980   38.2720   40.1120 O.2   485  ARG485     -0.2718
    233  CB        48.4030   38.1590   42.8720 C.3   485  ARG485      0.0321
    234  CG        48.8560   39.5550   43.2930 C.3   485  ARG485      0.0489
    235  CD        48.6640   39.7850   44.7900 C.3   485  ARG485      0.2205
    236  NE        49.3400   38.7530   45.5590 N.pl3 485  ARG485     -0.0865
    237  CZ        49.4280   38.7330   46.8840 C.cat 485  ARG485      0.5346
    238  NH1       48.8840   39.7010   47.6070 N.pl3 485  ARG485      0.1354
    239  NH2       50.0480   37.7310   47.4860 N.pl3 485  ARG485      0.1354
    240  N         48.2480   39.8980   40.1970 N.am  486  TYR486     -0.1976
    241  CA        47.4920   40.8140   39.3580 C.3   486  TYR486      0.1639
    242  C         47.5340   40.3770   37.8950 C.2   486  TYR486      0.2290
    243  O         46.5910   40.6380   37.1390 O.2   486  TYR486     -0.2864
    244  CB        48.0350   42.2380   39.5170 C.3   486  TYR486      0.0560
    245  CG        47.9420   42.7520   40.9410 C.ar  486  TYR486     -0.0198
    246  CD1       49.0530   42.7490   41.7780 C.ar  486  TYR486     -0.0009
    247  CD2       46.7330   43.2220   41.4540 C.ar  486  TYR486     -0.0009
    248  CE1       48.9620   43.2050   43.0970 C.ar  486  TYR486      0.0417
    249  CE2       46.6290   43.6800   42.7670 C.ar  486  TYR486      0.0417
    250  CZ        47.7510   43.6730   43.5820 C.ar  486  TYR486      0.1957
    251  OH        47.6910   44.1740   44.8670 O.3   486  TYR486     -0.2866
    252  N         44.0900   39.4620   35.9390 N.3   490  PHE490     -0.1241
    253  CA        43.6690   40.0100   34.6610 C.3   490  PHE490      0.1605
    254  C         43.3200   38.9780   33.6010 C.2   490  PHE490      0.2264
    255  O         42.4790   39.2390   32.7470 O.2   490  PHE490     -0.2867
    256  CB        44.7070   41.0060   34.1450 C.3   490  PHE490      0.0534
    257  CG        44.4830   42.4050   34.6480 C.ar  490  PHE490     -0.0203
    258  CD1       44.2660   42.6410   36.0080 C.ar  490  PHE490     -0.0042
    259  CD2       44.4740   43.4840   33.7670 C.ar  490  PHE490     -0.0042
    260  CE1       44.0420   43.9430   36.4870 C.ar  490  PHE490     -0.0003
    261  CE2       44.2530   44.7830   34.2240 C.ar  490  PHE490     -0.0003
    262  CZ        44.0360   45.0180   35.5900 C.ar  490  PHE490     -0.0000
@<TRIPOS>BOND
     1   156   157    2
     2   156   155    1
     3   158   155    1
     4   158   159    1
     5   154   155    1
     6   163   164    1
     7   159   160    1
     8    21    22    2
     9    21    20    1
    10   165   164    1
    11   165   166    2
    12   164   167    1
    13   160   161    1
    14    20    19    1
    15    20    23    1
    16   255   254    2
    17    13    12    2
    18   167   168    1
    19    19    12   am
    20    12    11    1
    21   161   162    1
    22   254   253    1
    23    23    25    1
    24    23    24    1
    25    10    11    1
    26   259   261   ar
    27   259   257   ar
    28    11    14    1
    29   256   257    1
    30   256   253    1
    31   261   262   ar
    32   168   170   ar
    33   168   169   ar
    34   257   258   ar
    35   253   252    1
    36   170   172   ar
    37   169   171   ar
    38    14    15    1
    39   262   260   ar
    40   258   260   ar
    41    15    16    1
    42   172   173   ar
    43   171   173   ar
    44   149   148    2
    45    72    70    1
    46   243   242    2
    47    16    17    2
    48    16    18   am
    49   148   147    1
    50   242   241    1
    51    71    70    1
    52    70    67    1
    53   150   147    1
    54   150   151    1
    55   153   151   ar
    56   147   146    1
    57   151   152   ar
    58   226   224   ar
    59   226   227   ar
    60   241   244    1
    61   241   240    1
    62   228   227    1
    63   224   222   ar
    64    67    66    1
    65    67    68    1
    66   244   245    1
    67   227   225   ar
    68   232   231    2
    69   240   231   am
    70   220   219    2
    71   231   230    1
    72    68    69    2
    73    68    73   am
    74   182   181    1
    75   222   221    1
    76   222   223   ar
    77   245   247   ar
    78   245   246   ar
    79   219   218    1
    80   181   180    1
    81   229   230    1
    82   180   179    1
    83   225   223   ar
    84    73    74    1
    85   221   218    1
    86   230   233    1
    87   247   249   ar
    88   140   139    2
    89   179   178    1
    90    79    77    1
    91   178   175    1
    92   246   248   ar
    93   139   138    1
    94   218   217    1
    95    74    77    1
    96    74    75    1
    97   141   138    1
    98   141   142    1
    99    86    88   ar
   100    86    85   ar
   101    77    78    1
   102   249   250   ar
   103    84    85    1
   104    84    81    1
   105   175   174    1
   106   175   176    1
   107   233   234    1
   108    88    89   ar
   109   138   137    1
   110    80    81    1
   111   248   250   ar
   112    85    87   ar
   113    81    82    1
   114   234   235    1
   115   142   143    1
   116    75    76    2
   117   250   251    1
   118   137   129   am
   119    89    87   ar
   120   122   123    2
   121   122   121    1
   122   202   200   ar
   123   202   203   ar
   124   144   143   ar
   125   200   199   ar
   126   176   177    2
   127   176   183   am
   128   143   145   ar
   129   127   128    1
   130   203   201   ar
   131   199   198    1
   132   199   201   ar
   133   129   130    2
   134   129   128    1
   135   183   184    1
   136    82    83    2
   137    82    90   am
   138   235   236    1
   139   198   195    1
   140    34    35   ar
   141    34    32   ar
   142   121   120    1
   143   121   124    1
   144   120   126    1
   145   124   125    1
   146   128   131    1
   147   236   237    2
   148    35    33   ar
   149    90    91    1
   150   194   195    1
   151   194   185   am
   152   213   212    2
   153    32    31   ar
   154   195   196    1
   155   126   125    1
   156   184   187    1
   157   184   185    1
   158   187   188    1
   159   196   197    2
   160   185   186    2
   161    98    96   ar
   162   131   132    1
   163   107   108   ar
   164   107   105   ar
   165   108   106   ar
   166   212   211    1
   167   237   239    1
   168   237   238    1
   169    33    31   ar
   170    91    92    1
   171    91    94    1
   172    31    30    1
   173    95    96    1
   174    95    94    1
   175   188   190   ar
   176   188   189   ar
   177    40    37    1
   178   190   192   ar
   179    96    97   ar
   180   105   104   ar
   181   106   104   ar
   182    99   100    1
   183   215   214    1
   184    92    93    2
   185   132   133   ar
   186   132   134   ar
   187   104   103    1
   188   214   211    1
   189   214   216    1
   190   133   135   ar
   191   211   210    1
   192    36    37    1
   193    36    28   am
   194    30    27    1
   195    39    38    2
   196    27    28    1
   197    27    26    1
   198   189   191   ar
   199   192   193   ar
   200    37    38    1
   201   100   103    1
   202   100   101    1
   203    38    41   am
   204    28    29    2
   205   134   136   ar
   206   135   136   ar
   207   193   191   ar
   208   101   102    2
   209   204   205    1
   210    41    42    1
   211   208   209    1
   212   208   205    1
   213    42    43    1
   214    42    45    1
   215   205   206    1
   216   206   207    2
   217    51    48    1
   218    47    43   am
   219    47    48    1
   220    43    44    2
   221    45    46    1
   222   109   110    1
   223    48    49    1
   224     9     7   ar
   225     8     7   ar
   226   118   119   ar
   227   118   116   ar
   228   119   117   ar
   229     7     6    1
   230    50    49    2
   231   116   114   ar
   232    49    52   am
   233     4     3    2
   234   110   111    1
   235   110   113    1
   236   117   115   ar
   237   114   115   ar
   238   114   113    1
   239     2     1    1
   240     2     3    1
   241     2     5    1
   242   111   112    2
   243    52    53    1
   244     6     5    1
   245    60    58   ar
   246    60    61   ar
   247    58    57   ar
   248    53    54    1
   249    53    56    1
   250    61    63   ar
   251    61    59   ar
   252    57    56    1
   253    57    59   ar
   254    54    55    2
   255    63    65   ar
   256    59    62   ar
   257    65    64   ar
   258    62    64   ar
