@<TRIPOS>MOLECULE
tmp/3bknC00.pdb
 102 97 0 0 0
SMALL
GASTEIGER

@<TRIPOS>ATOM
      1  N         44.6910   -4.0510  -13.9590 N.3    19  LEU19      -0.1245
      2  CA        43.9720   -2.8620  -14.3370 C.3    19  LEU19       0.1561
      3  C         43.9860   -2.7560  -15.8410 C.2    19  LEU19       0.2260
      4  O         42.9740   -2.3630  -16.4410 O.2    19  LEU19      -0.2867
      5  CB        44.5850   -1.6300  -13.6930 C.3    19  LEU19       0.0270
      6  CG        44.3460   -1.4910  -12.2000 C.3    19  LEU19       0.0019
      7  CD1       45.0490   -0.2500  -11.7590 C.3    19  LEU19       0.0001
      8  CD2       42.8360   -1.4490  -11.7960 C.3    19  LEU19       0.0001
      9  N         41.6040   -5.3490  -17.3290 N.3    22  ILE22      -0.1231
     10  CA        40.2010   -4.9080  -17.2270 C.3    22  ILE22       0.1692
     11  C         39.8340   -4.0900  -18.4690 C.2    22  ILE22       0.2592
     12  O         38.8480   -4.3860  -19.1540 O.2    22  ILE22      -0.2718
     13  CB        39.9430   -4.0590  -15.9850 C.3    22  ILE22       0.0266
     14  CG1       40.0810   -4.9310  -14.7460 C.3    22  ILE22       0.0019
     15  CG2       38.5420   -3.3650  -16.0850 C.3    22  ILE22       0.0020
     16  CD1       40.4520   -4.1110  -13.5150 C.3    22  ILE22       0.0001
     17  N         40.6500   -3.0890  -18.7590 N.am   23  ASN23      -0.1974
     18  CA        40.4070   -2.2280  -19.8650 C.3    23  ASN23       0.1688
     19  C         40.4270   -3.0130  -21.1680 C.2    23  ASN23       0.2292
     20  O         39.5210   -2.8620  -22.0070 O.2    23  ASN23      -0.2864
     21  CB        41.4190   -1.0610  -19.8510 C.3    23  ASN23       0.1181
     22  CG        41.0920   -0.0160  -18.7510 C.2    23  ASN23       0.2629
     23  OD1       40.2770   -0.2640  -17.8720 O.2    23  ASN23      -0.2716
     24  ND2       41.7060    1.1420  -18.8220 N.am   23  ASN23      -0.0877
     25  N         37.4290   -5.4510  -21.4030 N.3    26  PHE26      -0.1241
     26  CA        36.1740   -4.7480  -21.4480 C.3    26  PHE26       0.1605
     27  C         35.9300   -4.1230  -22.7890 C.2    26  PHE26       0.2264
     28  O         34.8330   -4.2970  -23.3530 O.2    26  PHE26      -0.2867
     29  CB        36.0400   -3.6950  -20.3840 C.3    26  PHE26       0.0534
     30  CG        34.6290   -3.2840  -20.1740 C.ar   26  PHE26      -0.0203
     31  CD1       33.7670   -4.1120  -19.4700 C.ar   26  PHE26      -0.0042
     32  CD2       34.1460   -2.1060  -20.7390 C.ar   26  PHE26      -0.0042
     33  CE1       32.4470   -3.7560  -19.2850 C.ar   26  PHE26      -0.0003
     34  CE2       32.8330   -1.7340  -20.5790 C.ar   26  PHE26      -0.0003
     35  CZ        31.9670   -2.5470  -19.8470 C.ar   26  PHE26      -0.0000
     36  N         33.1820  -10.1360  -21.6950 N.3    45  ARG45      -0.1245
     37  CA        32.7650   -9.2650  -20.5900 C.3    45  ARG45       0.1563
     38  C         33.0340   -9.9560  -19.2740 C.2    45  ARG45       0.2260
     39  O         33.6970   -9.3880  -18.4460 O.2    45  ARG45      -0.2867
     40  CB        31.3130   -8.8310  -20.7080 C.3    45  ARG45       0.0307
     41  CG        30.8660   -7.7060  -19.7710 C.3    45  ARG45       0.0489
     42  CD        29.3190   -7.6520  -19.8170 C.3    45  ARG45       0.2205
     43  NE        28.6990   -6.6470  -18.9540 N.pl3  45  ARG45      -0.0865
     44  CZ        28.6110   -5.3530  -19.2720 C.cat  45  ARG45       0.5346
     45  NH1       29.1460   -4.8820  -20.4090 N.pl3  45  ARG45       0.1354
     46  NH2       28.0350   -4.5020  -18.4480 N.pl3  45  ARG45       0.1354
     47  N         35.1610   -8.8530  -15.7750 N.3    49  PHE49      -0.1241
     48  CA        34.7430   -8.8450  -14.3680 C.3    49  PHE49       0.1605
     49  C         35.6700   -9.6470  -13.4440 C.2    49  PHE49       0.2264
     50  O         35.9520   -9.2560  -12.3290 O.2    49  PHE49      -0.2867
     51  CB        33.2680   -9.2500  -14.2510 C.3    49  PHE49       0.0534
     52  CG        32.3040   -8.2350  -14.8080 C.ar   49  PHE49      -0.0203
     53  CD1       32.7350   -7.0800  -15.4060 C.ar   49  PHE49      -0.0042
     54  CD2       30.9390   -8.4530  -14.7540 C.ar   49  PHE49      -0.0042
     55  CE1       31.8200   -6.1230  -15.9420 C.ar   49  PHE49      -0.0003
     56  CE2       29.9930   -7.5030  -15.2920 C.ar   49  PHE49      -0.0003
     57  CZ        30.4560   -6.3330  -15.8920 C.ar   49  PHE49      -0.0000
     58  N         38.4860   -7.4630  -12.7910 N.3    52  MET52      -0.1230
     59  CA        38.0530   -6.4900  -11.8020 C.3    52  MET52       0.1702
     60  C         38.1900   -7.0800  -10.3960 C.2    52  MET52       0.2592
     61  O         38.7470   -6.4270   -9.4960 O.2    52  MET52      -0.2718
     62  CB        36.6430   -5.9970  -12.1130 C.3    52  MET52       0.0401
     63  CG        36.5720   -5.1310  -13.3800 C.3    52  MET52       0.0596
     64  SD        34.9060   -4.5730  -13.8610 S.3    52  MET52      -0.1393
     65  CE        34.9570   -4.6220  -15.6480 C.3    52  MET52       0.0692
     66  N         37.7330   -8.3250  -10.2210 N.am   53  ARG53      -0.1980
     67  CA        37.9200   -9.0180   -8.9490 C.3    53  ARG53       0.1597
     68  C         39.3730   -9.2120   -8.5190 C.2    53  ARG53       0.2287
     69  O         39.7060   -9.0320   -7.3510 O.2    53  ARG53      -0.2864
     70  CB        37.1640  -10.3260   -8.9380 C.3    53  ARG53       0.0334
     71  CG        35.9190  -10.2320   -8.0430 C.3    53  ARG53       0.0492
     72  CD        34.8640  -11.3380   -8.3090 C.3    53  ARG53       0.2205
     73  NE        33.9350  -10.9610   -9.3710 N.pl3  53  ARG53      -0.0865
     74  CZ        33.6890  -11.6820  -10.4760 C.cat  53  ARG53       0.5346
     75  NH1       34.2990  -12.8730  -10.7030 N.pl3  53  ARG53       0.1354
     76  NH2       32.8040  -11.2090  -11.3620 N.pl3  53  ARG53       0.1354
     77  N         41.8910   -7.2780   -9.3500 N.3    55  ALA55      -0.1231
     78  CA        42.3770   -5.9680   -8.9760 C.3    55  ALA55       0.1694
     79  C         41.9160   -5.6340   -7.5340 C.2    55  ALA55       0.2591
     80  O         42.7030   -5.1210   -6.7110 O.2    55  ALA55      -0.2718
     81  CB        41.8950   -4.9480   -9.9580 C.3    55  ALA55       0.0304
     82  N         40.6660   -5.9600   -7.2080 N.am   56  GLU56      -0.1979
     83  CA        40.1570   -5.6840   -5.8830 C.3    56  GLU56       0.1602
     84  C         40.8910   -6.4940   -4.7830 C.2    56  GLU56       0.2287
     85  O         41.3270   -5.9100   -3.7840 O.2    56  GLU56      -0.2864
     86  CB        38.6420   -5.8660   -5.8400 C.3    56  GLU56       0.0415
     87  CG        38.1620   -6.0440   -4.4340 C.3    56  GLU56       0.1163
     88  CD        36.7070   -5.7630   -4.2120 C.2    56  GLU56       0.3649
     89  OE1       35.8760   -6.1710   -5.0530 O.co2  56  GLU56      -0.2457
     90  OE2       36.3970   -5.1650   -3.1510 O.co2  56  GLU56      -0.2457
     91  N         46.8540    2.9620   -8.6480 N.3    71  TYR71      -0.1241
     92  CA        45.7470    2.9610   -9.5830 C.3    71  TYR71       0.1605
     93  C         45.9960    3.9470  -10.6910 C.2    71  TYR71       0.2264
     94  O         45.0720    4.2330  -11.4450 O.2    71  TYR71      -0.2867
     95  CB        44.4380    3.3160   -8.8740 C.3    71  TYR71       0.0534
     96  CG        43.7040    2.1520   -8.2730 C.ar   71  TYR71      -0.0201
     97  CD1       44.2820    1.3660   -7.2890 C.ar   71  TYR71      -0.0009
     98  CD2       42.4130    1.8340   -8.6860 C.ar   71  TYR71      -0.0009
     99  CE1       43.5850    0.2640   -6.7480 C.ar   71  TYR71       0.0417
    100  CE2       41.7150    0.7350   -8.1550 C.ar   71  TYR71       0.0417
    101  CZ        42.3040   -0.0310   -7.1970 C.ar   71  TYR71       0.1957
    102  OH        41.6180   -1.0810   -6.6630 O.3    71  TYR71      -0.2866
@<TRIPOS>BOND
     1    28    27    2
     2    27    26    1
     3    20    19    2
     4    36    37    1
     5    26    25    1
     6    26    29    1
     7    19    18    1
     8    32    34   ar
     9    32    30   ar
    10    40    37    1
    11    40    41    1
    12    37    38    1
    13    34    35   ar
    14    45    44    1
    15    29    30    1
    16    30    31   ar
    17    18    21    1
    18    18    17    1
    19    21    22    1
    20    35    33   ar
    21    42    41    1
    22    42    43    1
    23    31    33   ar
    24    38    39    2
    25    44    43    2
    26    44    46    1
    27    12    11    2
    28    24    22   am
    29    17    11   am
    30    22    23    2
    31    11    10    1
    32     9    10    1
    33    10    13    1
    34     4     3    2
    35    15    13    1
    36    13    14    1
    37    55    57   ar
    38    55    53   ar
    39    57    56   ar
    40     3     2    1
    41    47    48    1
    42    65    64    1
    43    53    52   ar
    44    56    54   ar
    45    52    54   ar
    46    52    51    1
    47    14    16    1
    48    48    51    1
    49    48    49    1
    50     2     1    1
    51     2     5    1
    52    64    63    1
    53     5     6    1
    54    49    50    2
    55    63    62    1
    56    58    59    1
    57     6     8    1
    58     6     7    1
    59    62    59    1
    60    59    60    1
    61    94    93    2
    62    76    74    1
    63    75    74    1
    64    93    92    1
    65    74    73    2
    66    60    66   am
    67    60    61    2
    68    66    67    1
    69    81    78    1
    70    92    95    1
    71    92    91    1
    72    73    72    1
    73    77    78    1
    74    78    79    1
    75    67    70    1
    76    67    68    1
    77    70    71    1
    78    95    96    1
    79    98    96   ar
    80    98   100   ar
    81    68    69    2
    82    72    71    1
    83    96    97   ar
    84   100   101   ar
    85    79    82   am
    86    79    80    2
    87    97    99   ar
    88    82    83    1
    89   101    99   ar
    90   101   102    1
    91    83    86    1
    92    83    84    1
    93    86    87    1
    94    89    88   ar
    95    84    85    2
    96    87    88    1
    97    88    90   ar
