@<TRIPOS>MOLECULE
tmp/3bksA00.pdb
 175 166 0 0 0
SMALL
GASTEIGER

@<TRIPOS>ATOM
      1  N         29.1890    5.8470  -11.0980 N.3    11  LEU11      -0.1245
      2  CA        29.2330    6.8150   -9.9920 C.3    11  LEU11       0.1561
      3  C         29.6800    6.1020   -8.7070 C.2    11  LEU11       0.2260
      4  O         30.4770    6.6470   -7.9520 O.2    11  LEU11      -0.2867
      5  CB        27.8600    7.4900   -9.7890 C.3    11  LEU11       0.0270
      6  CG        27.3360    8.3480  -10.9600 C.3    11  LEU11       0.0019
      7  CD1       26.0450    9.0390  -10.5800 C.3    11  LEU11       0.0001
      8  CD2       28.3560    9.4000  -11.3740 C.3    11  LEU11       0.0001
      9  N         33.3790    5.7760   -8.7310 N.3    14  LYS14      -0.1231
     10  CA        34.1110    6.9890   -8.3820 C.3    14  LYS14       0.1693
     11  C         34.0470    7.2180   -6.8640 C.2    14  LYS14       0.2591
     12  O         35.0380    7.5830   -6.2640 O.2    14  LYS14      -0.2718
     13  CB        33.5170    8.1960   -9.1130 C.3    14  LYS14       0.0285
     14  CG        33.7160    8.2080  -10.6400 C.3    14  LYS14       0.0035
     15  CD        32.9220    9.4210  -11.2330 C.3    14  LYS14       0.0206
     16  CE        32.9640    9.4420  -12.7500 C.3    14  LYS14       0.1093
     17  NZ        34.3260    9.6230  -13.3120 N.3    14  LYS14      -0.1314
     18  N         32.8760    7.0190   -6.2510 N.am   15  LEU15      -0.1980
     19  CA        32.7560    7.1120   -4.7680 C.3    15  LEU15       0.1596
     20  C         33.6940    6.1780   -3.9920 C.2    15  LEU15       0.2287
     21  O         34.2640    6.5570   -2.9620 O.2    15  LEU15      -0.2864
     22  CB        31.3140    6.8460   -4.3220 C.3    15  LEU15       0.0297
     23  CG        30.3370    7.9980   -4.6180 C.3    15  LEU15       0.0022
     24  CD1       28.8770    7.5660   -4.4200 C.3    15  LEU15       0.0001
     25  CD2       30.6720    9.2040   -3.7180 C.3    15  LEU15       0.0001
     26  N         37.2830    7.5550   -3.4360 N.3    18  VAL18      -0.1245
     27  CA        37.5110    8.7240   -2.5810 C.3    18  VAL18       0.1561
     28  C         38.2130    8.2810   -1.2940 C.2    18  VAL18       0.2260
     29  O         37.7950    7.3230   -0.6450 O.2    18  VAL18      -0.2867
     30  CB        36.1770    9.4700   -2.2670 C.3    18  VAL18       0.0252
     31  CG1       36.3810   10.6370   -1.2850 C.3    18  VAL18       0.0019
     32  CG2       35.5380    9.9820   -3.5750 C.3    18  VAL18       0.0019
     33  N         40.4640   11.8360    4.8840 N.3    22  LYS22      -0.1231
     34  CA        40.6410   13.2780    4.7780 C.3    22  LYS22       0.1693
     35  C         39.3920   13.9120    4.1610 C.2    22  LYS22       0.2592
     36  O         39.4200   14.3330    3.0010 O.2    22  LYS22      -0.2718
     37  CB        41.8640   13.6210    3.9220 C.3    22  LYS22       0.0285
     38  CG        43.1410   13.9750    4.6910 C.3    22  LYS22       0.0035
     39  CD        44.1280   14.6810    3.7450 C.3    22  LYS22       0.0206
     40  CE        45.5880   14.4770    4.1430 C.3    22  LYS22       0.1093
     41  NZ        46.2280   15.6990    4.7130 N.3    22  LYS22      -0.1314
     42  N         38.3150   13.9830    4.9460 N.am   23  ARG23      -0.1966
     43  CA        36.9950   14.4150    4.4590 C.3    23  ARG23       0.1729
     44  C         36.7810   15.9120    4.6100 C.2    23  ARG23       0.2617
     45  O         36.9820   16.4720    5.6900 O.2    23  ARG23      -0.2715
     46  CB        35.8840   13.6810    5.2130 C.3    23  ARG23       0.0348
     47  CG        35.9000   12.1520    5.1050 C.3    23  ARG23       0.0492
     48  CD        36.0620   11.6400    3.6540 C.3    23  ARG23       0.2205
     49  NE        35.2530   12.3930    2.6970 N.pl3  23  ARG23      -0.0865
     50  CZ        33.9230   12.3470    2.6460 C.cat  23  ARG23       0.5346
     51  NH1       33.2380   11.5890    3.5080 N.pl3  23  ARG23       0.1354
     52  NH2       33.2850   13.0750    1.7470 N.pl3  23  ARG23       0.1354
     53  N         36.3690   16.5710    3.5390 N.am   24  SER24      -0.1936
     54  CA        36.0670   17.9950    3.6360 C.3    24  SER24       0.2055
     55  C         34.6900   18.3950    3.0700 C.2    24  SER24       0.2643
     56  O         34.1300   19.3900    3.4880 O.2    24  SER24      -0.2714
     57  CB        37.1900   18.8320    3.0230 C.3    24  SER24       0.2130
     58  OG        37.1540   18.7280    1.6200 O.3    24  SER24      -0.2179
     59  N         34.1320   17.6020    2.1600 N.am   25  PHE25      -0.1973
     60  CA        32.8880   17.9530    1.4900 C.3    25  PHE25       0.1639
     61  C         31.8970   16.8780    1.8570 C.2    25  PHE25       0.2290
     62  O         31.9590   15.7640    1.3300 O.2    25  PHE25      -0.2864
     63  CB        33.1400   18.0030   -0.0290 C.3    25  PHE25       0.0560
     64  CG        31.9280   18.3030   -0.8590 C.ar   25  PHE25      -0.0200
     65  CD1       31.4230   19.5800   -0.9410 C.ar   25  PHE25      -0.0042
     66  CD2       31.3350   17.3060   -1.6290 C.ar   25  PHE25      -0.0042
     67  CE1       30.3010   19.8600   -1.7510 C.ar   25  PHE25      -0.0003
     68  CE2       30.2310   17.5860   -2.4490 C.ar   25  PHE25      -0.0003
     69  CZ        29.7120   18.8490   -2.4880 C.ar   25  PHE25      -0.0000
     70  N         22.2150   11.6360   -2.3160 N.3    45  LEU45      -0.1245
     71  CA        23.6660   11.6420   -2.4910 C.3    45  LEU45       0.1561
     72  C         24.2660   11.9780   -1.1310 C.2    45  LEU45       0.2260
     73  O         24.1750   13.1110   -0.6780 O.2    45  LEU45      -0.2867
     74  CB        24.1260   12.6800   -3.5260 C.3    45  LEU45       0.0270
     75  CG        23.3960   12.6490   -4.8800 C.3    45  LEU45       0.0019
     76  CD1       23.8930   13.7610   -5.7970 C.3    45  LEU45       0.0001
     77  CD2       23.5400   11.2990   -5.5420 C.3    45  LEU45       0.0001
     78  N         27.3470   12.4680    0.9110 N.3    47  PHE47      -0.1241
     79  CA        28.7890   12.6540    0.8980 C.3    47  PHE47       0.1605
     80  C         29.4670   12.5110    2.2710 C.2    47  PHE47       0.2264
     81  O         30.6940   12.5050    2.3680 O.2    47  PHE47      -0.2867
     82  CB        29.1360   13.9740    0.2330 C.3    47  PHE47       0.0534
     83  CG        28.8660   13.9710   -1.2360 C.ar   47  PHE47      -0.0203
     84  CD1       29.7580   13.3640   -2.1100 C.ar   47  PHE47      -0.0042
     85  CD2       27.7110   14.5540   -1.7470 C.ar   47  PHE47      -0.0042
     86  CE1       29.5080   13.3620   -3.5050 C.ar   47  PHE47      -0.0003
     87  CE2       27.4440   14.5360   -3.1230 C.ar   47  PHE47      -0.0003
     88  CZ        28.3320   13.9280   -3.9950 C.ar   47  PHE47      -0.0000
     89  N         29.5040    8.6650    1.8200 N.3    50  LEU50      -0.1245
     90  CA        29.9230    8.3930    0.4500 C.3    50  LEU50       0.1561
     91  C         29.1090    7.2590   -0.1640 C.2    50  LEU50       0.2260
     92  O         29.6360    6.1890   -0.5390 O.2    50  LEU50      -0.2867
     93  CB        31.4160    8.0720    0.3760 C.3    50  LEU50       0.0270
     94  CG        32.3150    9.2480    0.7110 C.3    50  LEU50       0.0019
     95  CD1       33.7570    8.7650    0.8390 C.3    50  LEU50       0.0001
     96  CD2       32.2020   10.3070   -0.3560 C.3    50  LEU50       0.0001
     97  N         25.1840    6.4940   -2.5010 N.3    52  ILE52      -0.1245
     98  CA        23.9830    6.9440   -3.1530 C.3    52  ILE52       0.1561
     99  C         22.9720    5.8760   -2.8050 C.2    52  ILE52       0.2260
    100  O         23.2380    4.6820   -2.9950 O.2    52  ILE52      -0.2867
    101  CB        24.1750    6.9930   -4.6780 C.3    52  ILE52       0.0252
    102  CG1       25.2250    8.0510   -5.0500 C.3    52  ILE52       0.0019
    103  CG2       22.8240    7.2340   -5.3780 C.3    52  ILE52       0.0019
    104  CD1       25.5680    8.0400   -6.5800 C.3    52  ILE52       0.0001
    105  N         19.8030   14.6750  -15.3970 N.3    81  PHE81      -0.1241
    106  CA        20.6900   14.1530  -14.3780 C.3    81  PHE81       0.1605
    107  C         21.7130   13.2070  -15.0360 C.2    81  PHE81       0.2264
    108  O         22.8830   13.2480  -14.7340 O.2    81  PHE81      -0.2867
    109  CB        19.9100   13.3880  -13.3120 C.3    81  PHE81       0.0534
    110  CG        20.7810   12.9390  -12.1670 C.ar   81  PHE81      -0.0203
    111  CD1       21.1470   13.8380  -11.1710 C.ar   81  PHE81      -0.0042
    112  CD2       21.2760   11.6510  -12.1140 C.ar   81  PHE81      -0.0042
    113  CE1       21.9760   13.4380  -10.1030 C.ar   81  PHE81      -0.0003
    114  CE2       22.1180   11.2440  -11.0570 C.ar   81  PHE81      -0.0003
    115  CZ        22.4730   12.1570  -10.0570 C.ar   81  PHE81      -0.0000
    116  N         24.4040   15.3460  -16.6340 N.3    84  VAL84      -0.1231
    117  CA        25.3840   15.8750  -15.6790 C.3    84  VAL84       0.1692
    118  C         26.3500   14.7780  -15.2220 C.2    84  VAL84       0.2591
    119  O         27.5610   14.9970  -15.1220 O.2    84  VAL84      -0.2718
    120  CB        24.7210   16.4810  -14.4090 C.3    84  VAL84       0.0266
    121  CG1       25.8120   16.9010  -13.4210 C.3    84  VAL84       0.0020
    122  CG2       23.8940   17.6600  -14.7920 C.3    84  VAL84       0.0020
    123  N         25.7940   13.6210  -14.9070 N.am   85  ALA85      -0.1980
    124  CA        26.5660   12.4520  -14.4430 C.3    85  ALA85       0.1597
    125  C         27.5480   11.9310  -15.5050 C.2    85  ALA85       0.2287
    126  O         28.5570   11.3530  -15.1580 O.2    85  ALA85      -0.2864
    127  CB        25.6210   11.3130  -14.0230 C.3    85  ALA85       0.0319
    128  N         25.4070   21.3800  -13.4430 N.3    91  PHE91      -0.1241
    129  CA        24.2900   21.9200  -12.6540 C.3    91  PHE91       0.1605
    130  C         24.1370   23.4070  -12.9530 C.2    91  PHE91       0.2264
    131  O         23.0370   23.8550  -13.1730 O.2    91  PHE91      -0.2867
    132  CB        24.4890   21.6670  -11.1460 C.3    91  PHE91       0.0534
    133  CG        24.2670   20.2140  -10.7370 C.ar   91  PHE91      -0.0203
    134  CD1       23.0290   19.6190  -10.9000 C.ar   91  PHE91      -0.0042
    135  CD2       25.2930   19.4590  -10.2310 C.ar   91  PHE91      -0.0042
    136  CE1       22.8010   18.3100  -10.5420 C.ar   91  PHE91      -0.0003
    137  CE2       25.0850   18.1370   -9.8720 C.ar   91  PHE91      -0.0003
    138  CZ        23.8340   17.5570  -10.0310 C.ar   91  PHE91      -0.0000
    139  N         29.6330   20.9250   -5.9980 N.3   112  LEU112     -0.1245
    140  CA        29.6610   19.5760   -6.5480 C.3   112  LEU112      0.1561
    141  C         30.1020   19.5680   -8.0340 C.2   112  LEU112      0.2260
    142  O         30.9270   18.7640   -8.3950 O.2   112  LEU112     -0.2867
    143  CB        28.3140   18.8690   -6.3820 C.3   112  LEU112      0.0270
    144  CG        28.2190   17.4080   -6.8720 C.3   112  LEU112      0.0019
    145  CD1       29.3000   16.5180   -6.2860 C.3   112  LEU112      0.0001
    146  CD2       26.8490   16.8320   -6.5220 C.3   112  LEU112      0.0001
    147  N         33.9280   19.8390   -7.8580 N.3   115  LYS115     -0.1231
    148  CA        34.6070   18.6420   -7.3420 C.3   115  LYS115      0.1693
    149  C         34.5040   17.4530   -8.3110 C.2   115  LYS115      0.2592
    150  O         35.4500   16.6960   -8.4930 O.2   115  LYS115     -0.2718
    151  CB        34.0560   18.2740   -5.9590 C.3   115  LYS115      0.0285
    152  CG        34.1450   19.4510   -5.0050 C.3   115  LYS115      0.0035
    153  CD        34.7010   19.0610   -3.6700 C.3   115  LYS115      0.0206
    154  CE        35.0040   20.2750   -2.8510 C.3   115  LYS115      0.1093
    155  NZ        36.4770   20.4910   -2.8020 N.3   115  LYS115     -0.1314
    156  N         33.3390   17.2810   -8.9120 N.am  116  PHE116     -0.1976
    157  CA        33.0630   16.1320   -9.7650 C.3   116  PHE116      0.1639
    158  C         33.9060   16.1640  -11.0550 C.2   116  PHE116      0.2290
    159  O         34.3050   15.1230  -11.5910 O.2   116  PHE116     -0.2864
    160  CB        31.5750   16.1150  -10.0840 C.3   116  PHE116      0.0560
    161  CG        31.1470   14.9720  -10.9520 C.ar  116  PHE116     -0.0200
    162  CD1       31.4210   13.6510  -10.5870 C.ar  116  PHE116     -0.0042
    163  CD2       30.4390   15.2100  -12.1250 C.ar  116  PHE116     -0.0042
    164  CE1       31.0000   12.5980  -11.3960 C.ar  116  PHE116     -0.0003
    165  CE2       30.0240   14.1560  -12.9390 C.ar  116  PHE116     -0.0003
    166  CZ        30.3160   12.8670  -12.5820 C.ar  116  PHE116     -0.0000
    167  N         36.9710   14.0420  -11.0540 N.3   119  LYS119     -0.1245
    168  CA        36.8130   12.6620  -10.5470 C.3   119  LYS119      0.1561
    169  C         36.3540   11.6170  -11.5720 C.2   119  LYS119      0.2260
    170  O         35.4510   11.9170  -12.3690 O.2   119  LYS119     -0.2867
    171  CB        35.8520   12.6470   -9.3510 C.3   119  LYS119      0.0271
    172  CG        36.3260   13.4800   -8.1730 C.3   119  LYS119      0.0035
    173  CD        37.5440   12.9000   -7.5200 C.3   119  LYS119      0.0206
    174  CE        37.8610   13.7180   -6.2740 C.3   119  LYS119      0.1093
    175  NZ        39.2420   13.4050   -5.7790 N.3   119  LYS119     -0.1314
@<TRIPOS>BOND
     1   116   117    1
     2   117   118    1
     3   117   120    1
     4   125   126    2
     5   125   124    1
     6   105   106    1
     7   118   119    2
     8   118   123   am
     9   107   108    2
    10   107   106    1
    11   123   124    1
    12   122   120    1
    13   124   127    1
    14   120   121    1
    15   106   109    1
    16   128   129    1
    17    17    16    1
    18   109   110    1
    19   131   130    2
    20   130   129    1
    21   165   166   ar
    22   165   163   ar
    23    16    15    1
    24   129   132    1
    25   166   164   ar
    26   170   169    2
    27   110   112   ar
    28   110   111   ar
    29   163   161   ar
    30   112   114   ar
    31   159   158    2
    32   169   168    1
    33   164   162   ar
    34     8     6    1
    35    15    14    1
    36   111   113   ar
    37   132   133    1
    38     1     2    1
    39   114   115   ar
    40   158   157    1
    41   167   168    1
    42     6     7    1
    43     6     5    1
    44   161   162   ar
    45   161   160    1
    46   134   133   ar
    47   134   136   ar
    48   133   135   ar
    49    14    13    1
    50   168   171    1
    51   136   138   ar
    52   135   137   ar
    53   113   115   ar
    54   160   157    1
    55   138   137   ar
    56     2     5    1
    57     2     3    1
    58   157   156    1
    59   171   172    1
    60    13    10    1
    61   156   149   am
    62     9    10    1
    63     3     4    2
    64   150   149    2
    65   142   141    2
    66    10    11    1
    67   149   148    1
    68   172   173    1
    69   141   140    1
    70   147   148    1
    71   173   174    1
    72   148   151    1
    73   144   146    1
    74   144   143    1
    75   144   145    1
    76    11    12    2
    77    11    18   am
    78   104   102    1
    79   140   143    1
    80   140   139    1
    81   174   175    1
    82    18    19    1
    83   151   152    1
    84    76    75    1
    85    77    75    1
    86   103   101    1
    87   102   101    1
    88   152   153    1
    89    75    74    1
    90    19    22    1
    91    19    20    1
    92   101    98    1
    93    23    24    1
    94    23    22    1
    95    23    25    1
    96    88    86   ar
    97    88    87   ar
    98    20    21    2
    99   153   154    1
   100    32    30    1
   101    74    71    1
   102    86    84   ar
   103    26    27    1
   104    98    99    1
   105    98    97    1
   106    87    85   ar
   107   100    99    2
   108   154   155    1
   109    27    30    1
   110    27    28    1
   111    71    70    1
   112    71    72    1
   113    69    68   ar
   114    69    67   ar
   115    68    66   ar
   116    30    31    1
   117    84    83   ar
   118    67    65   ar
   119    85    83   ar
   120    66    64   ar
   121    28    29    2
   122    83    82    1
   123    72    73    2
   124    65    64   ar
   125    64    63    1
   126    92    91    2
   127    96    94    1
   128    91    90    1
   129    63    60    1
   130    82    79    1
   131    93    90    1
   132    93    94    1
   133    90    89    1
   134    94    95    1
   135    79    78    1
   136    79    80    1
   137    62    61    2
   138    60    61    1
   139    60    59    1
   140    58    57    1
   141    52    50    1
   142    59    55   am
   143    80    81    2
   144    50    49    2
   145    50    51    1
   146    49    48    1
   147    36    35    2
   148    57    54    1
   149    55    56    2
   150    55    54    1
   151    53    54    1
   152    53    44   am
   153    48    47    1
   154    39    40    1
   155    39    38    1
   156    37    38    1
   157    37    34    1
   158    40    41    1
   159    35    34    1
   160    35    42   am
   161    43    44    1
   162    43    42    1
   163    43    46    1
   164    44    45    2
   165    34    33    1
   166    47    46    1
