@<TRIPOS>MOLECULE
tmp/3bkvA00.pdb
 194 188 0 0 0
SMALL
GASTEIGER

@<TRIPOS>ATOM
      1  N          4.1290   28.3260    0.2440 N.3   120  GLU120     -0.1245
      2  CA         4.2380   27.3280   -0.8070 C.3   120  GLU120      0.1567
      3  C          3.0380   26.4040   -0.9680 C.2   120  GLU120      0.2260
      4  O          2.7760   25.9160   -2.0640 O.2   120  GLU120     -0.2867
      5  CB         5.4880   26.4810   -0.5670 C.3   120  GLU120      0.0388
      6  CG         6.7900   27.2360   -0.7470 C.3   120  GLU120      0.1160
      7  CD         7.1410   27.4310   -2.2010 C.2   120  GLU120      0.3649
      8  OE1        7.8200   26.5650   -2.7890 O.co2 120  GLU120     -0.2457
      9  OE2        6.7210   28.4510   -2.7640 O.co2 120  GLU120     -0.2457
     10  N          0.8210   23.5630  -12.2100 N.3   131  THR131     -0.1203
     11  CA         1.7450   24.1610  -13.1620 C.3   131  THR131      0.1994
     12  C          3.0820   23.4380  -13.3680 C.2   131  THR131      0.2618
     13  O          3.7600   23.6700  -14.3760 O.2   131  THR131     -0.2717
     14  CB         2.0380   25.6180  -12.7490 C.3   131  THR131      0.1784
     15  OG1        1.4230   25.8890  -11.4750 O.3   131  THR131     -0.2211
     16  CG2        1.5040   26.5820  -13.7960 C.3   131  THR131      0.0376
     17  N          3.4660   22.5740  -12.4260 N.am  132  SER132     -0.1951
     18  CA         4.7430   21.8550  -12.5240 C.3   132  SER132      0.1924
     19  C          4.8280   20.6180  -11.6280 C.2   132  SER132      0.2314
     20  O          3.8070   20.0370  -11.2590 O.2   132  SER132     -0.2863
     21  CB         5.9020   22.8010  -12.1750 C.3   132  SER132      0.2116
     22  OG         5.7850   23.2920  -10.8480 O.3   132  SER132     -0.2180
     23  N          6.2790   20.6360   -8.5730 N.3   134  ALA134     -0.1245
     24  CA         6.0380   21.1470   -7.2160 C.3   134  ALA134      0.1562
     25  C          4.9880   20.3800   -6.4100 C.2   134  ALA134      0.2260
     26  O          3.8120   20.3300   -6.7910 O.2   134  ALA134     -0.2867
     27  CB         5.6560   22.6250   -7.2860 C.3   134  ALA134      0.0290
     28  N          6.6090   22.1120    0.9880 N.3   138  PHE138     -0.1227
     29  CA         7.7090   22.8870    0.4360 C.3   138  PHE138      0.1736
     30  C          7.7720   22.9260   -1.0890 C.2   138  PHE138      0.2595
     31  O          8.7820   23.3540   -1.6700 O.2   138  PHE138     -0.2718
     32  CB         9.0230   22.3720    1.0410 C.3   138  PHE138      0.0547
     33  CG         9.1900   22.7420    2.4940 C.ar  138  PHE138     -0.0202
     34  CD1       10.0070   23.8130    2.8660 C.ar  138  PHE138     -0.0042
     35  CD2        8.4560   22.0900    3.4790 C.ar  138  PHE138     -0.0042
     36  CE1       10.0820   24.2310    4.1980 C.ar  138  PHE138     -0.0003
     37  CE2        8.5230   22.5020    4.8070 C.ar  138  PHE138     -0.0003
     38  CZ         9.3390   23.5790    5.1680 C.ar  138  PHE138     -0.0000
     39  N          6.6870   22.4940   -1.7280 N.am  139  GLN139     -0.1965
     40  CA         6.5940   22.5040   -3.1830 C.3   139  GLN139      0.1733
     41  C          7.9050   22.1220   -3.8410 C.2   139  GLN139      0.2616
     42  O          8.4460   22.8620   -4.6720 O.2   139  GLN139     -0.2715
     43  CB         6.1770   23.8860   -3.6860 C.3   139  GLN139      0.0408
     44  CG         4.7870   24.3040   -3.2720 C.3   139  GLN139      0.0908
     45  CD         3.7170   23.3700   -3.7970 C.2   139  GLN139      0.2608
     46  OE1        3.0870   22.6460   -3.0300 O.2   139  GLN139     -0.2717
     47  NE2        3.5060   23.3800   -5.1100 N.am  139  GLN139     -0.0878
     48  N          8.4170   20.9640   -3.4570 N.am  140  PHE140     -0.1960
     49  CA         9.6500   20.4620   -4.0220 C.3   140  PHE140      0.1771
     50  C          9.4120   19.9930   -5.4440 C.2   140  PHE140      0.2619
     51  O          8.4110   19.3260   -5.7380 O.2   140  PHE140     -0.2715
     52  CB        10.1680   19.2900   -3.1860 C.3   140  PHE140      0.0574
     53  CG        11.3100   19.6460   -2.2860 C.ar  140  PHE140     -0.0200
     54  CD1       12.5920   19.8030   -2.8030 C.ar  140  PHE140     -0.0042
     55  CD2       11.1040   19.8500   -0.9290 C.ar  140  PHE140     -0.0042
     56  CE1       13.6500   20.1520   -1.9790 C.ar  140  PHE140     -0.0003
     57  CE2       12.1600   20.2000   -0.0930 C.ar  140  PHE140     -0.0003
     58  CZ        13.4320   20.3560   -0.6170 C.ar  140  PHE140     -0.0000
     59  N         10.3190   20.3610   -6.3360 N.am  141  LEU141     -0.1977
     60  CA        10.2130   19.9020   -7.7040 C.3   141  LEU141      0.1596
     61  C         10.6230   18.4390   -7.6140 C.2   141  LEU141      0.2287
     62  O         11.0870   17.9770   -6.5650 O.2   141  LEU141     -0.2864
     63  CB        11.1720   20.6640   -8.6260 C.3   141  LEU141      0.0297
     64  CG        10.7570   22.0950   -8.9790 C.3   141  LEU141      0.0022
     65  CD1       11.6860   22.6480  -10.0490 C.3   141  LEU141      0.0001
     66  CD2        9.3000   22.1010   -9.4710 C.3   141  LEU141      0.0001
     67  N         15.0880   18.4160   -7.9250 N.3   144  THR144     -0.1218
     68  CA        15.8440   18.7580   -6.7370 C.3   144  THR144      0.1862
     69  C         15.4800   17.8450   -5.5670 C.2   144  THR144      0.2287
     70  O         16.3110   17.5710   -4.6950 O.2   144  THR144     -0.2866
     71  CB        15.6490   20.2510   -6.3760 C.3   144  THR144      0.1770
     72  OG1       14.2560   20.5380   -6.2110 O.3   144  THR144     -0.2211
     73  CG2       16.2150   21.1380   -7.5020 C.3   144  THR144      0.0375
     74  N         17.7620   14.8180   -5.7730 N.3   147  THR147     -0.1218
     75  CA        19.1120   15.1630   -5.3380 C.3   147  THR147      0.1862
     76  C         19.1530   15.3690   -3.8340 C.2   147  THR147      0.2287
     77  O         20.1670   15.1190   -3.1800 O.2   147  THR147     -0.2866
     78  CB        19.6100   16.4500   -6.0200 C.3   147  THR147      0.1770
     79  OG1       19.7830   16.2040   -7.4190 O.3   147  THR147     -0.2211
     80  CG2       20.9400   16.8980   -5.4290 C.3   147  THR147      0.0375
     81  N         17.7300   22.1190    2.5850 N.3   177  LEU177     -0.1245
     82  CA        17.8720   22.9820    1.4040 C.3   177  LEU177      0.1561
     83  C         18.1560   24.4280    1.8540 C.2   177  LEU177      0.2260
     84  O         19.0120   25.1280    1.2940 O.2   177  LEU177     -0.2867
     85  CB        16.5880   22.9280    0.5710 C.3   177  LEU177      0.0270
     86  CG        16.5730   23.7260   -0.7360 C.3   177  LEU177      0.0019
     87  CD1       17.6270   23.1730   -1.6810 C.3   177  LEU177      0.0001
     88  CD2       15.1920   23.6460   -1.3650 C.3   177  LEU177      0.0001
     89  N         21.7010   24.6780    2.9780 N.3   180  GLU180     -0.1231
     90  CA        22.5680   24.7270    1.8010 C.3   180  GLU180      0.1699
     91  C         22.6040   26.1660    1.3050 C.2   180  GLU180      0.2592
     92  O         23.6690   26.7710    1.1430 O.2   180  GLU180     -0.2718
     93  CB        22.0170   23.8380    0.6780 C.3   180  GLU180      0.0402
     94  CG        22.6410   22.4530    0.5920 C.3   180  GLU180      0.1161
     95  CD        22.2230   21.7100   -0.6630 C.2   180  GLU180      0.3649
     96  OE1       22.2910   22.3160   -1.7540 O.co2 180  GLU180     -0.2457
     97  OE2       21.8330   20.5250   -0.5640 O.co2 180  GLU180     -0.2457
     98  N         21.4100   26.7030    1.0810 N.am  181  ASN181     -0.1974
     99  CA        21.2460   28.0600    0.5900 C.3   181  ASN181      0.1688
    100  C         21.7090   29.1500    1.5480 C.2   181  ASN181      0.2292
    101  O         22.2100   30.1830    1.1010 O.2   181  ASN181     -0.2864
    102  CB        19.7860   28.2850    0.1940 C.3   181  ASN181      0.1181
    103  CG        19.4000   27.5050   -1.0470 C.2   181  ASN181      0.2629
    104  OD1       18.2210   27.2700   -1.3120 O.2   181  ASN181     -0.2716
    105  ND2       20.3980   27.1120   -1.8270 N.am  181  ASN181     -0.0877
    106  N         25.4120   29.5060    0.9660 N.3   183  ILE183     -0.1245
    107  CA        25.8370   30.1020   -0.2900 C.3   183  ILE183      0.1561
    108  C         25.7320   31.6240   -0.1550 C.2   183  ILE183      0.2260
    109  O         26.5950   32.3630   -0.6270 O.2   183  ILE183     -0.2867
    110  CB        24.9340   29.6360   -1.4910 C.3   183  ILE183      0.0252
    111  CG1       25.2110   28.1720   -1.8390 C.3   183  ILE183      0.0019
    112  CG2       25.2010   30.4950   -2.7260 C.3   183  ILE183      0.0019
    113  CD1       26.6370   27.9140   -2.3060 C.3   183  ILE183      0.0001
    114  N         16.2020   32.0610   -3.0060 N.3   200  ALA200     -0.1231
    115  CA        17.0230   30.9100   -3.4150 C.3   200  ALA200      0.1694
    116  C         16.1590   29.6650   -3.6320 C.2   200  ALA200      0.2592
    117  O         16.4200   28.8500   -4.5240 O.2   200  ALA200     -0.2718
    118  CB        18.0950   30.6270   -2.3620 C.3   200  ALA200      0.0304
    119  N         15.1300   29.5390   -2.8020 N.am  201  HIS201     -0.1962
    120  CA        14.1970   28.4200   -2.8540 C.3   201  HIS201      0.1787
    121  C         13.3800   28.4450   -4.1580 C.2   201  HIS201      0.2620
    122  O         13.1950   27.4200   -4.8260 O.2   201  HIS201     -0.2715
    123  CB        13.2540   28.5160   -1.6600 C.3   201  HIS201      0.0785
    124  CG        12.2920   27.3760   -1.5450 C.ar  201  HIS201      0.0821
    125  ND1       12.5170   26.2940   -0.7210 N.ar  201  HIS201     -0.2267
    126  CD2       11.0880   27.1650   -2.1250 C.ar  201  HIS201      0.1154
    127  CE1       11.4900   25.4670   -0.7950 C.ar  201  HIS201      0.1986
    128  NE2       10.6080   25.9710   -1.6390 N.ar  201  HIS201     -0.2212
    129  N         12.9010   29.6300   -4.5120 N.am  202  PHE202     -0.1960
    130  CA        12.0940   29.7990   -5.7070 C.3   202  PHE202      0.1771
    131  C         12.8670   29.8660   -7.0290 C.2   202  PHE202      0.2620
    132  O         12.4980   29.1950   -7.9960 O.2   202  PHE202     -0.2715
    133  CB        11.2390   31.0570   -5.5590 C.3   202  PHE202      0.0574
    134  CG        10.2380   31.2320   -6.6540 C.ar  202  PHE202     -0.0200
    135  CD1        9.1990   30.3210   -6.8110 C.ar  202  PHE202     -0.0042
    136  CD2       10.3480   32.2870   -7.5510 C.ar  202  PHE202     -0.0042
    137  CE1        8.2850   30.4550   -7.8550 C.ar  202  PHE202     -0.0003
    138  CE2        9.4430   32.4330   -8.5970 C.ar  202  PHE202     -0.0003
    139  CZ         8.4090   31.5160   -8.7510 C.ar  202  PHE202     -0.0000
    140  N         13.9310   30.6670   -7.0600 N.am  203  PHE203     -0.1960
    141  CA        14.7340   30.8670   -8.2660 C.3   203  PHE203      0.1771
    142  C         15.9900   30.0270   -8.3620 C.2   203  PHE203      0.2620
    143  O         16.6520   30.0130   -9.4090 O.2   203  PHE203     -0.2715
    144  CB        15.1600   32.3370   -8.3700 C.3   203  PHE203      0.0574
    145  CG        14.0190   33.2880   -8.5880 C.ar  203  PHE203     -0.0200
    146  CD1       13.3220   33.2920   -9.7930 C.ar  203  PHE203     -0.0042
    147  CD2       13.6250   34.1640   -7.5820 C.ar  203  PHE203     -0.0042
    148  CE1       12.2450   34.1540   -9.9930 C.ar  203  PHE203     -0.0003
    149  CE2       12.5500   35.0310   -7.7670 C.ar  203  PHE203     -0.0003
    150  CZ        11.8560   35.0280   -8.9750 C.ar  203  PHE203     -0.0000
    151  N         16.3210   29.3360   -7.2790 N.am  204  GLY204     -0.1940
    152  CA        17.5430   28.5590   -7.2480 C.3   204  GLY204      0.1998
    153  C         18.5800   29.4440   -6.5700 C.2   204  GLY204      0.2481
    154  O         18.4790   30.6740   -6.6470 O.2   204  GLY204     -0.2729
    155  N         19.5880   28.8670   -5.9020 N.am  205  PRO205     -0.2715
    156  CA        20.6000   29.6870   -5.2300 C.3   205  PRO205      0.1536
    157  C         21.5100   30.5080   -6.1370 C.2   205  PRO205      0.2599
    158  O         21.8020   31.6660   -5.8290 O.2   205  PRO205     -0.2715
    159  CB        21.3650   28.6650   -4.3880 C.3   205  PRO205      0.0310
    160  CG        21.2700   27.4180   -5.2090 C.3   205  PRO205      0.0237
    161  CD        19.8330   27.4320   -5.6680 C.3   205  PRO205      0.0939
    162  N         21.9520   29.9250   -7.2500 N.am  206  GLY206     -0.1941
    163  CA        22.8300   30.6480   -8.1580 C.3   206  GLY206      0.2014
    164  C         22.2700   31.9900   -8.6010 C.2   206  GLY206      0.2638
    165  O         22.9480   33.0230   -8.5400 O.2   206  GLY206     -0.2714
    166  N         21.0190   31.9660   -9.0510 N.am  207  ALA207     -0.1977
    167  CA        20.3390   33.1630   -9.5180 C.3   207  ALA207      0.1597
    168  C         20.0770   34.1110   -8.3570 C.2   207  ALA207      0.2287
    169  O         20.3170   35.3160   -8.4620 O.2   207  ALA207     -0.2864
    170  CB        19.0230   32.7810  -10.2010 C.3   207  ALA207      0.0319
    171  N         21.6980   34.3960   -5.8410 N.3   209  ARG209     -0.1245
    172  CA        23.0030   34.9500   -5.5180 C.3   209  ARG209      0.1563
    173  C         23.2790   36.1610   -6.4210 C.2   209  ARG209      0.2260
    174  O         23.5190   37.2750   -5.9310 O.2   209  ARG209     -0.2867
    175  CB        24.0630   33.8650   -5.7170 C.3   209  ARG209      0.0307
    176  CG        25.4470   34.1930   -5.2030 C.3   209  ARG209      0.0489
    177  CD        26.3440   32.9980   -5.4530 C.3   209  ARG209      0.2205
    178  NE        26.1840   32.5280   -6.8280 N.pl3 209  ARG209     -0.0865
    179  CZ        26.5290   31.3200   -7.2650 C.cat 209  ARG209      0.5346
    180  NH1       26.3380   31.0010   -8.5400 N.pl3 209  ARG209      0.1354
    181  NH2       27.0520   30.4250   -6.4320 N.pl3 209  ARG209      0.1354
    182  N          9.6040   33.1410  -17.4230 N.3   230  ALA230     -0.1231
    183  CA         8.8530   32.1820  -16.6220 C.3   230  ALA230      0.1694
    184  C          7.8790   32.8120  -15.6210 C.2   230  ALA230      0.2592
    185  O          6.8430   32.2190  -15.3110 O.2   230  ALA230     -0.2718
    186  CB         9.8190   31.2560  -15.8930 C.3   230  ALA230      0.0304
    187  N          8.2090   33.9950  -15.1040 N.am  231  ASN231     -0.1974
    188  CA         7.3330   34.6780  -14.1460 C.3   231  ASN231      0.1688
    189  C          7.2240   36.1510  -14.4560 C.2   231  ASN231      0.2292
    190  O          7.5750   36.9940  -13.6360 O.2   231  ASN231     -0.2864
    191  CB         7.8400   34.5070  -12.7140 C.3   231  ASN231      0.1181
    192  CG         7.9390   33.0600  -12.3170 C.2   231  ASN231      0.2629
    193  OD1        8.8240   32.3470  -12.7830 O.2   231  ASN231     -0.2716
    194  ND2        7.0170   32.6050  -11.4720 N.am  231  ASN231     -0.0877
@<TRIPOS>BOND
     1   182   183    1
     2   183   186    1
     3   183   184    1
     4   184   185    2
     5   184   187   am
     6   187   188    1
     7   189   188    1
     8   189   190    2
     9    13    12    2
    10   188   191    1
    11    16    14    1
    12    12    11    1
    13    12    17   am
    14    11    14    1
    15    11    10    1
    16   193   192    2
    17    14    15    1
    18   191   192    1
    19    18    17    1
    20    18    21    1
    21    18    19    1
    22   192   194   am
    23    21    22    1
    24    19    20    2
    25   170   167    1
    26    65    64    1
    27   148   146   ar
    28   148   150   ar
    29   146   145   ar
    30   167   166    1
    31   167   168    1
    32    66    64    1
    33   143   142    2
    34   166   164   am
    35    64    63    1
    36   150   149   ar
    37   139   138   ar
    38   139   137   ar
    39    63    60    1
    40   164   165    2
    41   164   163    1
    42   138   136   ar
    43   145   144    1
    44   145   147   ar
    45    23    24    1
    46   180   179    1
    47   169   168    2
    48   144   141    1
    49   142   141    1
    50   142   151   am
    51   141   140    1
    52   163   162    1
    53   132   131    2
    54    67    68    1
    55   137   135   ar
    56   149   147   ar
    57    60    61    1
    58    60    59    1
    59    61    62    2
    60   136   134   ar
    61    73    71    1
    62    79    78    1
    63    27    24    1
    64   151   152    1
    65   179   178    2
    66   179   181    1
    67   162   157   am
    68   152   153    1
    69    24    25    1
    70   140   131   am
    71   131   130    1
    72   178   177    1
    73   135   134   ar
    74    26    25    2
    75    68    71    1
    76    68    69    1
    77   134   133    1
    78   154   153    2
    79   153   155   am
    80   173   174    2
    81   173   172    1
    82    71    72    1
    83    59    50   am
    84   157   158    2
    85   157   156    1
    86    78    80    1
    87    78    75    1
    88   155   161    1
    89   155   156    1
    90   171   172    1
    91    74    75    1
    92    51    50    2
    93   175   172    1
    94   175   176    1
    95   130   133    1
    96   130   129    1
    97   161   160    1
    98    69    70    2
    99   177   176    1
   100    50    49    1
   101    75    76    1
   102   156   159    1
   103   160   159    1
   104    47    45   am
   105   122   121    2
   106    42    41    2
   107   117   116    2
   108   129   121   am
   109   121   120    1
   110    49    48    1
   111    49    52    1
   112    41    48   am
   113    41    40    1
   114    76    77    2
   115    45    44    1
   116    45    46    2
   117    43    44    1
   118    43    40    1
   119   116   115    1
   120   116   119   am
   121   115   114    1
   122   115   118    1
   123    52    53    1
   124    40    39    1
   125   120   119    1
   126   120   123    1
   127    54    53   ar
   128    54    56   ar
   129     8     7   ar
   130     9     7   ar
   131   112   110    1
   132   113   111    1
   133    53    55   ar
   134     7     6    1
   135   126   128   ar
   136   126   124   ar
   137     4     3    2
   138    56    58   ar
   139   111   110    1
   140   105   103   am
   141    96    95   ar
   142    39    30   am
   143    87    86    1
   144    31    30    2
   145   123   124    1
   146   128   127   ar
   147   124   125   ar
   148   110   107    1
   149    88    86    1
   150   104   103    2
   151    30    29    1
   152   103   102    1
   153     3     2    1
   154    55    57   ar
   155     2     5    1
   156     2     1    1
   157   127   125   ar
   158     6     5    1
   159    86    85    1
   160    95    97   ar
   161    95    94    1
   162   109   108    2
   163    58    57   ar
   164   107   108    1
   165   107   106    1
   166   102    99    1
   167    29    28    1
   168    29    32    1
   169    85    82    1
   170    99    98    1
   171    99   100    1
   172    94    93    1
   173    93    90    1
   174    32    33    1
   175    98    91   am
   176   101   100    2
   177    92    91    2
   178    84    83    2
   179    91    90    1
   180    82    83    1
   181    82    81    1
   182    90    89    1
   183    33    34   ar
   184    33    35   ar
   185    34    36   ar
   186    35    37   ar
   187    36    38   ar
   188    37    38   ar
