@<TRIPOS>MOLECULE
tmp/3bl1A00.pdb
 190 185 0 0 0
SMALL
GASTEIGER

@<TRIPOS>ATOM
      1  N          8.1290   -0.3810   10.4040 N.3     2  TRP2       -0.1241
      2  CA         7.5830   -1.4250   11.2450 C.3     2  TRP2        0.1605
      3  C          6.6590   -2.3440   10.4410 C.2     2  TRP2        0.2264
      4  O          6.1390   -1.9600    9.3980 O.2     2  TRP2       -0.2867
      5  CB         6.8770   -0.8180   12.4730 C.3     2  TRP2        0.0550
      6  CG         5.6700   -0.0140   12.0930 C.ar    2  TRP2        0.0003
      7  CD1        5.6380    1.3010   11.7100 C.ar    2  TRP2        0.0946
      8  CD2        4.3250   -0.4920   12.0060 C.ar    2  TRP2        0.0152
      9  NE1        4.3470    1.6730   11.4200 N.ar    2  TRP2       -0.2442
     10  CE2        3.5260    0.5860   11.5780 C.ar    2  TRP2        0.0810
     11  CE3        3.7190   -1.7270   12.2520 C.ar    2  TRP2        0.0012
     12  CZ2        2.1560    0.4730   11.4110 C.ar    2  TRP2        0.0191
     13  CZ3        2.3590   -1.8390   12.0750 C.ar    2  TRP2        0.0001
     14  CH2        1.5920   -0.7560   11.6510 C.ar    2  TRP2        0.0015
     15  N         -8.6450    2.0520    1.9820 N.3    57  LEU57      -0.1245
     16  CA        -7.2530    2.1870    1.6510 C.3    57  LEU57       0.1561
     17  C         -6.5420    0.9480    2.1660 C.2    57  LEU57       0.2260
     18  O         -6.7940    0.5130    3.2870 O.2    57  LEU57      -0.2867
     19  CB        -6.6840    3.4500    2.3380 C.3    57  LEU57       0.0270
     20  CG        -5.1660    3.6720    2.5060 C.3    57  LEU57       0.0019
     21  CD1       -4.4090    3.7230    1.1810 C.3    57  LEU57       0.0001
     22  CD2       -4.8320    4.9110    3.3520 C.3    57  LEU57       0.0001
     23  N         -3.2150    0.3060    3.6280 N.3    59  ASN59      -0.1240
     24  CA        -2.1480    1.1280    4.2230 C.3    59  ASN59       0.1653
     25  C         -0.8390    0.3480    4.4770 C.2    59  ASN59       0.2266
     26  O          0.1000    0.8590    5.0950 O.2    59  ASN59      -0.2867
     27  CB        -2.6580    1.7890    5.5150 C.3    59  ASN59       0.1155
     28  CG        -3.1810    0.7780    6.5250 C.2    59  ASN59       0.2627
     29  OD1       -2.5500   -0.2700    6.7610 O.2    59  ASN59      -0.2716
     30  ND2       -4.3340    1.0750    7.1310 N.am   59  ASN59      -0.0877
     31  N         -0.5080   -2.2980    6.3280 N.3    61  HIS61      -0.1226
     32  CA        -0.7250   -3.1530    7.5250 C.3    61  HIS61       0.1752
     33  C         -2.1720   -3.6540    7.6970 C.2    61  HIS61       0.2595
     34  O         -2.4190   -4.7360    8.2390 O.2    61  HIS61      -0.2718
     35  CB        -0.2290   -2.4930    8.8200 C.3    61  HIS61       0.0759
     36  CG        -0.6180   -1.0540    8.9760 C.ar   61  HIS61       0.0818
     37  ND1        0.1720   -0.0210    8.5130 N.ar   61  HIS61      -0.2268
     38  CD2       -1.6810   -0.4710    9.5930 C.ar   61  HIS61       0.1154
     39  CE1       -0.4040    1.1370    8.8130 C.ar   61  HIS61       0.1986
     40  NE2       -1.5230    0.8940    9.4770 N.ar   61  HIS61      -0.2212
     41  N         -3.1090   -2.8560    7.2180 N.am   62  ALA62      -0.1980
     42  CA        -4.5340   -3.1570    7.2700 C.3    62  ALA62       0.1597
     43  C         -5.1940   -2.3800    6.1380 C.2    62  ALA62       0.2287
     44  O         -4.5140   -1.7730    5.3330 O.2    62  ALA62      -0.2864
     45  CB        -5.1230   -2.7600    8.6210 C.3    62  ALA62       0.0319
     46  N         -8.3150    0.5950    5.7830 N.3    64  ASN64      -0.1240
     47  CA        -9.0970    1.5550    6.5260 C.3    64  ASN64       0.1653
     48  C        -10.3190    1.9720    5.7570 C.2    64  ASN64       0.2266
     49  O        -10.1930    2.5160    4.6580 O.2    64  ASN64      -0.2867
     50  CB        -8.2870    2.8460    6.7200 C.3    64  ASN64       0.1155
     51  CG        -7.2030    2.7040    7.7310 C.2    64  ASN64       0.2627
     52  OD1       -6.0390    2.9390    7.4230 O.2    64  ASN64      -0.2716
     53  ND2       -7.5610    2.3050    8.9430 N.am   64  ASN64      -0.0877
     54  N        -13.8180    8.3110   12.9010 N.3    88  ILE88      -0.1231
     55  CA       -12.9010    8.7230   11.8250 C.3    88  ILE88       0.1692
     56  C        -12.6370    7.6130   10.7960 C.2    88  ILE88       0.2591
     57  O        -12.5950    7.8580    9.5840 O.2    88  ILE88      -0.2718
     58  CB       -11.5940    9.4660   12.2980 C.3    88  ILE88       0.0266
     59  CG1      -10.6870    9.6900   11.0670 C.3    88  ILE88       0.0019
     60  CG2      -10.9200    8.7170   13.4290 C.3    88  ILE88       0.0020
     61  CD1       -9.7520   10.9240   11.0560 C.3    88  ILE88       0.0001
     62  N        -12.5410    6.3880   11.2810 N.am   89  GLN89      -0.1979
     63  CA       -12.2160    5.2870   10.4180 C.3    89  GLN89       0.1601
     64  C        -12.4550    3.9890   11.1450 C.2    89  GLN89       0.2287
     65  O        -12.5240    3.9590   12.3670 O.2    89  GLN89      -0.2864
     66  CB       -10.7600    5.3840    9.9300 C.3    89  GLN89       0.0394
     67  CG        -9.7200    5.4920   11.0120 C.3    89  GLN89       0.0908
     68  CD        -8.9660    4.2230   11.2270 C.2    89  GLN89       0.2608
     69  OE1       -9.5340    3.1350   11.4160 O.2    89  GLN89      -0.2717
     70  NE2       -7.6600    4.3440   11.2130 N.am   89  GLN89      -0.0878
     71  N        -11.2310   -0.4060   10.8500 N.3    91  HIS91      -0.1241
     72  CA       -10.2930   -1.3540   10.2810 C.3    91  HIS91       0.1621
     73  C        -10.3080   -2.5980   11.1540 C.2    91  HIS91       0.2264
     74  O        -10.9520   -2.6060   12.2150 O.2    91  HIS91      -0.2867
     75  CB        -8.8620   -0.7710   10.2200 C.3    91  HIS91       0.0745
     76  CG        -8.2550   -0.5580   11.5670 C.ar   91  HIS91       0.0817
     77  ND1       -8.2900    0.6630   12.2050 N.ar   91  HIS91      -0.2268
     78  CD2       -7.6580   -1.4180   12.4300 C.ar   91  HIS91       0.1154
     79  CE1       -7.7500    0.5450   13.4070 C.ar   91  HIS91       0.1986
     80  NE2       -7.3500   -0.7010   13.5680 N.ar   91  HIS91      -0.2212
     81  N         -7.9420   -6.4420   12.4360 N.3    93  HIS93      -0.1241
     82  CA        -6.7110   -7.1920   12.6380 C.3    93  HIS93       0.1621
     83  C         -7.1440   -8.6530   12.5660 C.2    93  HIS93       0.2264
     84  O         -8.1220   -9.0370   13.2180 O.2    93  HIS93      -0.2867
     85  CB        -6.1210   -6.8770   14.0160 C.3    93  HIS93       0.0745
     86  CG        -5.8460   -5.4190   14.2350 C.ar   93  HIS93       0.0817
     87  ND1       -4.6440   -4.8290   13.9060 N.ar   93  HIS93      -0.2268
     88  CD2       -6.6280   -4.4270   14.7220 C.ar   93  HIS93       0.1154
     89  CE1       -4.6930   -3.5400   14.1930 C.ar   93  HIS93       0.1986
     90  NE2       -5.8790   -3.2730   14.7050 N.ar   93  HIS93      -0.2212
     91  N        -11.8820   -2.4090   14.8180 N.3   116  HIS116     -0.1241
     92  CA       -11.6770   -1.1970   15.6010 C.3   116  HIS116      0.1621
     93  C        -12.3570   -0.0550   14.8800 C.2   116  HIS116      0.2264
     94  O        -11.9970    0.2900   13.7470 O.2   116  HIS116     -0.2867
     95  CB       -10.1830   -0.8980   15.8100 C.3   116  HIS116      0.0745
     96  CG        -9.4480   -1.9330   16.6240 C.ar  116  HIS116      0.0817
     97  ND1       -8.0850   -2.1210   16.5300 N.ar  116  HIS116     -0.2268
     98  CD2       -9.8800   -2.8070   17.5680 C.ar  116  HIS116      0.1154
     99  CE1       -7.7120   -3.0620   17.3770 C.ar  116  HIS116      0.1986
    100  NE2       -8.7810   -3.5050   18.0040 N.ar  116  HIS116     -0.2212
    101  N        -12.6960    3.7960   15.3420 N.3   118  VAL118     -0.1245
    102  CA       -11.8080    4.7620   15.9550 C.3   118  VAL118      0.1561
    103  C        -12.4960    6.1150   15.9440 C.2   118  VAL118      0.2260
    104  O        -12.9490    6.5820   14.8800 O.2   118  VAL118     -0.2867
    105  CB       -10.4620    4.9140   15.1600 C.3   118  VAL118      0.0252
    106  CG1       -9.5370    5.9760   15.8560 C.3   118  VAL118      0.0019
    107  CG2       -9.7540    3.5700   14.9690 C.3   118  VAL118      0.0019
    108  N         -8.5560   15.0180   14.7540 N.3   127  PHE127     -0.1241
    109  CA        -7.8640   13.7740   15.1300 C.3   127  PHE127      0.1605
    110  C         -6.4370   14.0720   15.6150 C.2   127  PHE127      0.2264
    111  O         -6.0150   13.5730   16.6590 O.2   127  PHE127     -0.2867
    112  CB        -7.8830   12.7040   14.0040 C.3   127  PHE127      0.0534
    113  CG        -7.0490   11.4770   14.3180 C.ar  127  PHE127     -0.0203
    114  CD1       -5.7210   11.4140   13.9330 C.ar  127  PHE127     -0.0042
    115  CD2       -7.5900   10.4030   15.0310 C.ar  127  PHE127     -0.0042
    116  CE1       -4.9360   10.3120   14.2340 C.ar  127  PHE127     -0.0003
    117  CE2       -6.8300    9.2810   15.3320 C.ar  127  PHE127     -0.0003
    118  CZ        -5.4860    9.2260   14.9360 C.ar  127  PHE127     -0.0000
    119  N         -8.7220    9.7090   22.3650 N.3   137  LEU137     -0.1245
    120  CA        -9.4300    8.7670   21.4970 C.3   137  LEU137      0.1561
    121  C        -10.3460    7.7910   22.2270 C.2   137  LEU137      0.2260
    122  O        -10.0820    7.4450   23.3490 O.2   137  LEU137     -0.2867
    123  CB        -8.4360    7.9760   20.6280 C.3   137  LEU137      0.0270
    124  CG        -7.5360    8.7210   19.6240 C.3   137  LEU137      0.0019
    125  CD1       -6.8740    7.7480   18.6950 C.3   137  LEU137      0.0001
    126  CD2       -8.3140    9.7980   18.8400 C.3   137  LEU137      0.0001
    127  N        -11.8320    3.8840   21.1770 N.3   139  VAL139     -0.1245
    128  CA       -11.9080    2.8450   20.1410 C.3   139  VAL139      0.1561
    129  C        -12.8940    1.7610   20.6070 C.2   139  VAL139      0.2260
    130  O        -12.8450    1.3170   21.7600 O.2   139  VAL139     -0.2867
    131  CB       -10.4770    2.3440   19.6580 C.3   139  VAL139      0.0252
    132  CG1      -10.5940    1.4650   18.4200 C.3   139  VAL139      0.0019
    133  CG2       -9.6240    3.5300   19.2630 C.3   139  VAL139      0.0019
    134  N         -2.8490    3.2820   21.1310 N.3   194  LEU194     -0.1231
    135  CA        -2.8970    2.6690   19.8160 C.3   194  LEU194      0.1693
    136  C         -2.1970    1.2920   19.9550 C.2   194  LEU194      0.2593
    137  O         -1.2570    1.1440   20.7520 O.2   194  LEU194     -0.2718
    138  CB        -2.2440    3.5140   18.7000 C.3   194  LEU194      0.0284
    139  CG        -2.4350    5.0260   18.3940 C.3   194  LEU194      0.0019
    140  CD1       -2.4360    5.2930   16.9010 C.3   194  LEU194      0.0001
    141  CD2       -3.6630    5.6350   19.0040 C.3   194  LEU194      0.0001
    142  N         -2.6530    0.3000   19.1890 N.am  195  THR195     -0.1939
    143  CA        -2.0080   -1.0020   19.1540 C.3   195  THR195      0.2028
    144  C         -0.9810   -1.1210   18.0290 C.2   195  THR195      0.2643
    145  O         -0.2450   -2.1120   17.9660 O.2   195  THR195     -0.2714
    146  CB        -3.0240   -2.1340   18.9690 C.3   195  THR195      0.1808
    147  OG1       -3.7520   -1.8720   17.7680 O.3   195  THR195     -0.2208
    148  CG2       -3.9670   -2.2340   20.1270 C.3   195  THR195      0.0379
    149  N         -0.9400   -0.1220   17.1440 N.am  196  THR196     -0.1937
    150  CA         0.1010    0.0410   16.1320 C.3   196  THR196      0.2013
    151  C          0.9610    1.2670   16.4750 C.2   196  THR196      0.2484
    152  O          0.4890    2.1490   17.2250 O.2   196  THR196     -0.2729
    153  CB        -0.5490    0.3630   14.7610 C.3   196  THR196      0.1807
    154  OG1       -1.4780    1.4180   14.9620 O.3   196  THR196     -0.2208
    155  CG2       -1.3250   -0.8500   14.1880 C.3   196  THR196      0.0379
    156  N          2.2150    1.3510   15.9180 N.am  197  PRO197     -0.2715
    157  CA         2.9320    2.6260   15.9910 C.3   197  PRO197      0.1521
    158  C          2.1020    3.8090   15.4630 C.2   197  PRO197      0.2440
    159  O          1.3540    3.6430   14.4970 O.2   197  PRO197     -0.2731
    160  CB         4.1640    2.3840   15.1250 C.3   197  PRO197      0.0310
    161  CG         4.4370    0.9130   15.2620 C.3   197  PRO197      0.0237
    162  CD         3.0350    0.3190   15.2550 C.3   197  PRO197      0.0939
    163  N          2.2250    5.0080   16.0730 N.am  198  PRO198     -0.2727
    164  CA         3.1320    5.4950   17.1100 C.3   198  PRO198      0.1402
    165  C          2.8620    4.9190   18.5290 C.2   198  PRO198      0.2269
    166  O          3.6560    5.1750   19.4450 O.2   198  PRO198     -0.2865
    167  CB         2.8700    7.0260   17.1310 C.3   198  PRO198      0.0296
    168  CG         1.9410    7.3010   15.9800 C.3   198  PRO198      0.0237
    169  CD         1.2470    6.0370   15.6750 C.3   198  PRO198      0.0939
    170  N         -5.9790    6.3500   24.2370 N.3   203  VAL203     -0.1245
    171  CA        -7.2470    5.6220   24.0310 C.3   203  VAL203      0.1561
    172  C         -8.0200    5.1050   25.2740 C.2   203  VAL203      0.2260
    173  O         -7.5000    4.3790   26.1260 O.2   203  VAL203     -0.2867
    174  CB        -7.0740    4.3930   23.0340 C.3   203  VAL203      0.0252
    175  CG1       -8.4550    3.8310   22.6190 C.3   203  VAL203      0.0019
    176  CG2       -6.2480    4.7660   21.7710 C.3   203  VAL203      0.0019
    177  N        -10.4140    2.3470   25.7040 N.3   205  TRP205     -0.1241
    178  CA       -10.9060    1.1350   25.0320 C.3   205  TRP205      0.1605
    179  C        -12.2760    0.6990   25.5370 C.2   205  TRP205      0.2264
    180  O        -12.5810    0.8490   26.7230 O.2   205  TRP205     -0.2867
    181  CB        -9.8900   -0.0250   25.1580 C.3   205  TRP205      0.0550
    182  CG        -8.7950    0.1050   24.1560 C.ar  205  TRP205      0.0003
    183  CD1       -7.5880    0.6900   24.3410 C.ar  205  TRP205      0.0946
    184  CD2       -8.8490   -0.3020   22.7710 C.ar  205  TRP205      0.0152
    185  NE1       -6.8610    0.6440   23.1750 N.ar  205  TRP205     -0.2442
    186  CE2       -7.6060    0.0340   22.1950 C.ar  205  TRP205      0.0810
    187  CE3       -9.8200   -0.9360   21.9850 C.ar  205  TRP205      0.0012
    188  CZ2       -7.2910   -0.2290   20.8460 C.ar  205  TRP205      0.0191
    189  CZ3       -9.5160   -1.2130   20.6590 C.ar  205  TRP205      0.0001
    190  CH2       -8.2430   -0.8520   20.0910 C.ar  205  TRP205      0.0015
@<TRIPOS>BOND
     1    21    20    1
     2    16    15    1
     3    16    17    1
     4    16    19    1
     5    17    18    2
     6    19    20    1
     7    20    22    1
     8    23    24    1
     9    24    25    1
    10    24    27    1
    11    25    26    2
    12    49    48    2
    13    44    43    2
    14    27    28    1
    15    48    47    1
    16    46    47    1
    17    43    42    1
    18    31    32    1
    19    28    29    2
    20    28    30   am
    21    47    50    1
    22    50    51    1
    23    41    42    1
    24    41    33   am
    25    42    45    1
    26    52    51    2
    27    32    33    1
    28    32    35    1
    29    33    34    2
    30    51    53   am
    31    37    39   ar
    32    37    36   ar
    33    39    40   ar
    34    35    36    1
    35    36    38   ar
    36     4     3    2
    37    40    38   ar
    38    57    56    2
    39    66    63    1
    40    66    67    1
    41    75    72    1
    42    75    76    1
    43    72    71    1
    44    72    73    1
    45     1     2    1
    46    63    64    1
    47    63    62    1
    48     3     2    1
    49    56    62   am
    50    56    55    1
    51    67    68    1
    52    61    59    1
    53    59    58    1
    54    64    65    2
    55    73    74    2
    56    70    68   am
    57    68    69    2
    58     2     5    1
    59    12    10   ar
    60    12    14   ar
    61     9    10   ar
    62     9     7   ar
    63    76    77   ar
    64    76    78   ar
    65    10     8   ar
    66    14    13   ar
    67     7     6   ar
    68    55    58    1
    69    55    54    1
    70     8     6   ar
    71     8    11   ar
    72    13    11   ar
    73     6     5    1
    74    77    79   ar
    75    58    60    1
    76    78    80   ar
    77    81    82    1
    78    83    82    1
    79    83    84    2
    80    82    85    1
    81    79    80   ar
    82    94    93    2
    83    87    89   ar
    84    87    86   ar
    85   114   116   ar
    86   114   113   ar
    87   112   113    1
    88   112   109    1
    89    85    86    1
    90   155   153    1
    91    89    90   ar
    92   116   118   ar
    93    86    88   ar
    94   113   115   ar
    95   159   158    2
    96    90    88   ar
    97   108   109    1
    98   153   154    1
    99   153   150    1
   100    91    92    1
   101   104   103    2
   102    93    92    1
   103   118   117   ar
   104   107   105    1
   105   115   117   ar
   106   160   161    1
   107   160   157    1
   108   109   110    1
   109   105   106    1
   110   105   102    1
   111   162   161    1
   112   162   156    1
   113   101   102    1
   114   158   157    1
   115   158   163   am
   116    92    95    1
   117   110   111    2
   118   169   168    1
   119   169   163    1
   120    95    96    1
   121   156   157    1
   122   156   151   am
   123   103   102    1
   124   168   167    1
   125   163   164    1
   126   150   151    1
   127   150   149    1
   128   151   152    2
   129    97    96   ar
   130    97    99   ar
   131    96    98   ar
   132   140   139    1
   133   164   167    1
   134   164   165    1
   135   149   144   am
   136    99   100   ar
   137    98   100   ar
   138   147   146    1
   139   145   144    2
   140   144   143    1
   141   139   138    1
   142   139   141    1
   143   132   131    1
   144   165   166    2
   145   125   124    1
   146   138   135    1
   147   126   124    1
   148   146   143    1
   149   146   148    1
   150   143   142    1
   151   142   136   am
   152   133   131    1
   153   124   123    1
   154   131   128    1
   155   135   136    1
   156   135   134    1
   157   136   137    2
   158   190   189   ar
   159   190   188   ar
   160   128   129    1
   161   128   127    1
   162   129   130    2
   163   123   120    1
   164   189   187   ar
   165   188   186   ar
   166   120   121    1
   167   120   119    1
   168   176   174    1
   169   187   184   ar
   170   186   184   ar
   171   186   185   ar
   172   121   122    2
   173   175   174    1
   174   184   182   ar
   175   174   171    1
   176   185   183   ar
   177   171   170    1
   178   171   172    1
   179   182   183   ar
   180   182   181    1
   181   178   181    1
   182   178   179    1
   183   178   177    1
   184   172   173    2
   185   179   180    2
