@<TRIPOS>MOLECULE
tmp/3bl6A00.pdb
 144 136 0 0 0
SMALL
GASTEIGER

@<TRIPOS>ATOM
      1  N         15.0330    0.1180   90.2360 N.3     9  ALA9       -0.1231
      2  CA        15.7560    1.3220   89.8410 C.3     9  ALA9        0.1694
      3  C         14.9450    2.5710   90.1320 C.2     9  ALA9        0.2591
      4  O         15.4720    3.5660   90.6090 O.2     9  ALA9       -0.2718
      5  CB        16.1180    1.2710   88.3890 C.3     9  ALA9        0.0304
      6  N         13.6590    2.4860   89.8190 N.am   10  MET10      -0.1979
      7  CA        12.7920    3.6410   89.7110 C.3    10  MET10       0.1605
      8  C         11.7020    3.5530   90.7850 C.2    10  MET10       0.2287
      9  O         11.2830    2.4740   91.1680 O.2    10  MET10      -0.2864
     10  CB        12.1370    3.6660   88.3260 C.3    10  MET10       0.0413
     11  CG        13.0910    3.9640   87.1590 C.3    10  MET10       0.0598
     12  SD        12.3260    3.6840   85.5490 S.3    10  MET10      -0.1393
     13  CE        13.6240    4.1570   84.4250 C.3    10  MET10       0.0692
     14  N          8.8320    1.3860   90.0470 N.3    13  GLU13      -0.1245
     15  CA         9.0870   -0.0440   90.1170 C.3    13  GLU13       0.1567
     16  C          9.0730   -0.6020   91.5380 C.2    13  GLU13       0.2260
     17  O          8.9470   -1.8090   91.7200 O.2    13  GLU13      -0.2867
     18  CB        10.4220   -0.3670   89.4380 C.3    13  GLU13       0.0388
     19  CG        10.4680    0.0440   87.9610 C.3    13  GLU13       0.1160
     20  CD        11.8580   -0.0510   87.3700 C.2    13  GLU13       0.3649
     21  OE1       12.8070    0.4010   88.0420 O.co2  13  GLU13      -0.2457
     22  OE2       12.0040   -0.5640   86.2360 O.co2  13  GLU13      -0.2457
     23  N         19.2590    4.3520   88.1230 N.3    51  ILE51      -0.1245
     24  CA        19.5080    3.5990   86.8930 C.3    51  ILE51       0.1561
     25  C         20.9710    3.3680   86.5180 C.2    51  ILE51       0.2260
     26  O         21.8410    4.1870   86.8280 O.2    51  ILE51      -0.2867
     27  CB        18.7870    4.3070   85.7090 C.3    51  ILE51       0.0252
     28  CG1       17.2800    4.3620   85.9880 C.3    51  ILE51       0.0019
     29  CG2       19.0640    3.5860   84.3940 C.3    51  ILE51       0.0019
     30  CD1       16.4950    5.3700   85.1570 C.3    51  ILE51       0.0001
     31  N         11.7190   -3.3480   85.0260 N.3    77  SER77      -0.1202
     32  CA        11.3510   -3.6960   83.6540 C.3    77  SER77       0.2020
     33  C         12.5580   -4.1280   82.8210 C.2    77  SER77       0.2619
     34  O         13.6850   -4.1300   83.3030 O.2    77  SER77      -0.2717
     35  CB        10.6810   -2.5020   82.9740 C.3    77  SER77       0.2103
     36  OG        11.6170   -1.4750   82.7050 O.3    77  SER77      -0.2182
     37  N         12.3090   -4.4940   81.5670 N.am   78  ALA78      -0.1965
     38  CA        13.3710   -4.8990   80.6560 C.3    78  ALA78       0.1728
     39  C         12.8020   -4.9830   79.2430 C.2    78  ALA78       0.2616
     40  O         11.5880   -5.0590   79.0640 O.2    78  ALA78      -0.2715
     41  CB        13.9350   -6.2540   81.0650 C.3    78  ALA78       0.0334
     42  N         13.6870   -4.9650   78.2480 N.am   79  GLY79      -0.1955
     43  CA        13.2560   -5.0700   76.8650 C.3    79  GLY79       0.1869
     44  C         13.3690   -6.5220   76.4330 C.2    79  GLY79       0.2309
     45  O         14.3750   -7.1730   76.7000 O.2    79  GLY79      -0.2863
     46  N         23.2310    1.2740   78.4820 N.3   151  SER151     -0.1202
     47  CA        22.5170    1.8870   77.3680 C.3   151  SER151      0.2020
     48  C         21.0730    1.3860   77.3030 C.2   151  SER151      0.2619
     49  O         20.7660    0.2690   77.7280 O.2   151  SER151     -0.2717
     50  CB        23.2080    1.5690   76.0380 C.3   151  SER151      0.2103
     51  OG        24.5310    2.0840   75.9950 O.3   151  SER151     -0.2182
     52  N         20.1820    2.2280   76.7940 N.am  152  PHE152     -0.1961
     53  CA        18.7950    1.8210   76.6270 C.3   152  PHE152      0.1771
     54  C         18.7560    1.2520   75.2200 C.2   152  PHE152      0.2619
     55  O         19.1950    1.9070   74.2730 O.2   152  PHE152     -0.2715
     56  CB        17.8420    3.0120   76.7330 C.3   152  PHE152      0.0574
     57  CG        16.3960    2.6390   76.5490 C.ar  152  PHE152     -0.0200
     58  CD1       15.6780    2.0640   77.5940 C.ar  152  PHE152     -0.0042
     59  CD2       15.7620    2.8290   75.3250 C.ar  152  PHE152     -0.0042
     60  CE1       14.3540    1.6850   77.4230 C.ar  152  PHE152     -0.0003
     61  CE2       14.4320    2.4510   75.1440 C.ar  152  PHE152     -0.0003
     62  CZ        13.7280    1.8780   76.1950 C.ar  152  PHE152     -0.0000
     63  N         18.2580    0.0280   75.0780 N.am  153  ILE153     -0.1977
     64  CA        18.2030   -0.5940   73.7640 C.3   153  ILE153      0.1596
     65  C         16.8810   -0.1730   73.1270 C.2   153  ILE153      0.2287
     66  O         15.8180   -0.7250   73.4360 O.2   153  ILE153     -0.2864
     67  CB        18.3020   -2.1360   73.8830 C.3   153  ILE153      0.0276
     68  CG1       19.4710   -2.5080   74.8050 C.3   153  ILE153      0.0022
     69  CG2       18.4820   -2.7670   72.5090 C.3   153  ILE153      0.0022
     70  CD1       20.8840   -1.9870   74.4210 C.3   153  ILE153      0.0001
     71  N         16.9350   -7.6160   77.9380 N.3   172  VAL172     -0.1231
     72  CA        18.0390   -6.6920   78.1790 C.3   172  VAL172      0.1692
     73  C         17.5930   -5.5280   79.0600 C.2   172  VAL172      0.2592
     74  O         16.4790   -5.0220   78.9270 O.2   172  VAL172     -0.2718
     75  CB        18.5990   -6.1310   76.8350 C.3   172  VAL172      0.0266
     76  CG1       17.4910   -5.4070   76.0590 C.3   172  VAL172      0.0020
     77  CG2       19.7550   -5.1600   77.1020 C.3   172  VAL172      0.0020
     78  N         18.4500   -5.1310   79.9930 N.am  173  GLU173     -0.1966
     79  CA        18.1400   -3.9960   80.8420 C.3   173  GLU173      0.1733
     80  C         19.4300   -3.4260   81.4520 C.2   173  GLU173      0.2616
     81  O         20.5180   -3.8980   81.1180 O.2   173  GLU173     -0.2715
     82  CB        17.1720   -4.3970   81.9660 C.3   173  GLU173      0.0429
     83  CG        17.4580   -5.7290   82.6340 C.3   173  GLU173      0.1163
     84  CD        18.7620   -5.6860   83.3710 C.2   173  GLU173      0.3649
     85  OE1       18.7660   -5.1580   84.4970 O.co2 173  GLU173     -0.2457
     86  OE2       19.7800   -6.1460   82.8140 O.co2 173  GLU173     -0.2457
     87  N         19.3440   -2.4510   82.3490 N.am  174  MET174     -0.1963
     88  CA        20.5690   -1.8240   82.8280 C.3   174  MET174      0.1736
     89  C         21.2580   -2.1700   84.1410 C.2   174  MET174      0.2616
     90  O         22.4390   -1.8750   84.2980 O.2   174  MET174     -0.2715
     91  CB        20.2900   -0.3260   82.5940 C.3   174  MET174      0.0427
     92  CG        19.9270    0.0110   81.1440 C.3   174  MET174      0.0599
     93  SD        19.3360    1.7240   80.8570 S.3   174  MET174     -0.1393
     94  CE        20.8220    2.6740   81.2130 C.3   174  MET174      0.0692
     95  N         20.5540   -2.8060   85.0750 N.am  175  GLU175     -0.1977
     96  CA        21.1950   -3.1230   86.3490 C.3   175  GLU175      0.1602
     97  C         21.4750   -4.5520   86.7990 C.2   175  GLU175      0.2287
     98  O         22.4100   -4.7860   87.5580 O.2   175  GLU175     -0.2864
     99  CB        20.2590   -2.4690   87.3860 C.3   175  GLU175      0.0415
    100  CG        20.0110   -0.9550   87.1730 C.3   175  GLU175      0.1163
    101  CD        18.8490   -0.6580   86.2380 C.2   175  GLU175      0.3649
    102  OE1       17.9980   -1.5490   86.0160 O.co2 175  GLU175     -0.2457
    103  OE2       18.7800    0.4790   85.7300 O.co2 175  GLU175     -0.2457
    104  N         11.8270   -9.5140   86.8040 N.3   194  ARG194     -0.1245
    105  CA        11.3770   -8.2960   86.1370 C.3   194  ARG194      0.1563
    106  C         10.2060   -8.6100   85.2080 C.2   194  ARG194      0.2260
    107  O          9.6830   -9.7230   85.2070 O.2   194  ARG194     -0.2867
    108  CB        12.5400   -7.6890   85.3340 C.3   194  ARG194      0.0307
    109  CG        13.6640   -7.1130   86.2010 C.3   194  ARG194      0.0489
    110  CD        14.8710   -6.7050   85.3610 C.3   194  ARG194      0.2205
    111  NE        15.9240   -6.0510   86.1490 N.pl3 194  ARG194     -0.0865
    112  CZ        16.1380   -4.7360   86.1720 C.cat 194  ARG194      0.5346
    113  NH1       15.3770   -3.9130   85.4500 N.pl3 194  ARG194      0.1354
    114  NH2       17.1200   -4.2340   86.9110 N.pl3 194  ARG194      0.1354
    115  N          8.5450   -4.4260   79.4010 N.3   197  SER197     -0.1202
    116  CA         7.9370   -3.1180   79.2560 C.3   197  SER197      0.2020
    117  C          8.0140   -2.7050   77.7920 C.2   197  SER197      0.2618
    118  O          7.3020   -1.8070   77.3570 O.2   197  SER197     -0.2717
    119  CB         8.6700   -2.0850   80.1280 C.3   197  SER197      0.2103
    120  OG        10.0550   -2.0350   79.8110 O.3   197  SER197     -0.2182
    121  N          8.8640   -3.3870   77.0290 N.am  198  ASP198     -0.1973
    122  CA         9.0620   -3.0490   75.6260 C.3   198  ASP198      0.1709
    123  C          9.7980   -4.1670   74.8940 C.2   198  ASP198      0.2293
    124  O         10.2800   -5.1170   75.5170 O.2   198  ASP198     -0.2864
    125  CB         9.8630   -1.7440   75.5490 C.3   198  ASP198      0.1436
    126  CG        11.2180   -1.8540   76.2400 C.2   198  ASP198      0.3671
    127  OD1       12.1770   -2.3060   75.5850 O.co2 198  ASP198     -0.2456
    128  OD2       11.3230   -1.5050   77.4370 O.co2 198  ASP198     -0.2456
    129  N         12.5200   -3.6690   72.9980 N.3   200  ALA200     -0.1245
    130  CA        13.8690   -3.1880   72.7180 C.3   200  ALA200      0.1562
    131  C         14.0310   -2.9830   71.2130 C.2   200  ALA200      0.2260
    132  O         14.9490   -3.5350   70.6060 O.2   200  ALA200     -0.2867
    133  CB        14.8910   -4.2430   73.1610 C.3   200  ALA200      0.0290
    134  N          7.9850    1.6740   76.4640 N.3   208  PHE208     -0.1241
    135  CA         8.3920    1.7920   77.8640 C.3   208  PHE208      0.1605
    136  C          7.4440    2.7350   78.6070 C.2   208  PHE208      0.2264
    137  O          6.9710    2.4210   79.6970 O.2   208  PHE208     -0.2867
    138  CB         9.8310    2.3320   77.9510 C.3   208  PHE208      0.0534
    139  CG        10.3190    2.5470   79.3550 C.ar  208  PHE208     -0.0203
    140  CD1       10.9280    1.5130   80.0590 C.ar  208  PHE208     -0.0042
    141  CD2       10.1490    3.7750   79.9830 C.ar  208  PHE208     -0.0042
    142  CE1       11.3620    1.6970   81.3680 C.ar  208  PHE208     -0.0003
    143  CE2       10.5790    3.9750   81.2980 C.ar  208  PHE208     -0.0003
    144  CZ        11.1880    2.9300   81.9920 C.ar  208  PHE208     -0.0000
@<TRIPOS>BOND
     1   132   131    2
     2   131   130    1
     3    69    67    1
     4   130   129    1
     5   130   133    1
     6    65    66    2
     7    65    64    1
     8    64    67    1
     9    64    63    1
    10    67    68    1
    11    55    54    2
    12    70    68    1
    13   123   124    2
    14   123   122    1
    15    63    54   am
    16    61    59   ar
    17    61    62   ar
    18    54    53    1
    19    59    57   ar
    20   125   122    1
    21   125   126    1
    22   127   126   ar
    23   122   121    1
    24    51    50    1
    25    50    47    1
    26    76    75    1
    27    62    60   ar
    28   126   128   ar
    29    44    45    2
    30    44    43    1
    31   134   135    1
    32    57    56    1
    33    57    58   ar
    34    53    56    1
    35    53    52    1
    36    52    48   am
    37    75    77    1
    38    75    72    1
    39    43    42    1
    40   121   117   am
    41    48    47    1
    42    48    49    2
    43   118   117    2
    44    47    46    1
    45    60    58   ar
    46   117   116    1
    47   135   138    1
    48   135   136    1
    49    71    72    1
    50   138   139    1
    51    72    73    1
    52    42    39   am
    53   136   137    2
    54    74    73    2
    55    73    78   am
    56    40    39    2
    57    39    38    1
    58   116   115    1
    59   116   119    1
    60   139   141   ar
    61   139   140   ar
    62   120   119    1
    63   141   143   ar
    64    78    79    1
    65   140   142   ar
    66    38    41    1
    67    38    37    1
    68    79    80    1
    69    79    82    1
    70    93    92    1
    71    93    94    1
    72    81    80    2
    73    92    91    1
    74   143   144   ar
    75   142   144   ar
    76    80    87   am
    77    37    33   am
    78    82    83    1
    79    87    88    1
    80    91    88    1
    81    83    84    1
    82    36    35    1
    83    86    84   ar
    84    33    34    2
    85    33    32    1
    86    88    89    1
    87    35    32    1
    88    84    85   ar
    89    32    31    1
    90    89    90    2
    91    89    95   am
    92    29    27    1
    93    13    12    1
    94    95    96    1
    95    30    28    1
    96   107   106    2
    97   106   105    1
    98   108   105    1
    99   108   109    1
   100   110   111    1
   101   110   109    1
   102   113   112    1
   103    12    11    1
   104    27    28    1
   105    27    24    1
   106   103   101   ar
   107   102   101   ar
   108   105   104    1
   109   111   112    2
   110   112   114    1
   111    22    20   ar
   112   101   100    1
   113    96    97    1
   114    96    99    1
   115    25    26    2
   116    25    24    1
   117    97    98    2
   118    24    23    1
   119    11    10    1
   120   100    99    1
   121    20    19    1
   122    20    21   ar
   123    19    18    1
   124    10     7    1
   125     5     2    1
   126    18    15    1
   127     7     6    1
   128     7     8    1
   129     6     3   am
   130     2     3    1
   131     2     1    1
   132    14    15    1
   133    15    16    1
   134     3     4    2
   135     8     9    2
   136    16    17    2
