@<TRIPOS>MOLECULE
tmp/3bl7A00.pdb
 153 148 0 0 0
SMALL
GASTEIGER

@<TRIPOS>ATOM
      1  N         20.4670   -0.9380   18.8670 N.3    13  ARG13      -0.1245
      2  CA        20.2920   -0.3060   17.5730 C.3    13  ARG13       0.1563
      3  C         20.6900    1.1750   17.6540 C.2    13  ARG13       0.2260
      4  O         20.6430    1.7870   18.7220 O.2    13  ARG13      -0.2867
      5  CB        18.8420   -0.4600   17.1360 C.3    13  ARG13       0.0307
      6  CG        18.5300    0.0040   15.7290 C.3    13  ARG13       0.0489
      7  CD        17.0420    0.0470   15.4870 C.3    13  ARG13       0.2205
      8  NE        16.4580   -1.2860   15.4630 N.pl3  13  ARG13      -0.0865
      9  CZ        15.1580   -1.5480   15.3220 C.cat  13  ARG13       0.5346
     10  NH1       14.2620   -0.5620   15.1820 N.pl3  13  ARG13       0.1354
     11  NH2       14.7460   -2.8170   15.3190 N.pl3  13  ARG13       0.1354
     12  N         18.8040    2.7790   20.8800 N.3    22  PHE22      -0.1241
     13  CA        18.1860    1.7310   21.6990 C.3    22  PHE22       0.1605
     14  C         19.2890    1.0730   22.5150 C.2    22  PHE22       0.2264
     15  O         20.2100    0.4830   21.9510 O.2    22  PHE22      -0.2867
     16  CB        17.5190    0.6600   20.8170 C.3    22  PHE22       0.0534
     17  CG        16.4040    1.1850   19.9430 C.ar   22  PHE22      -0.0203
     18  CD1       16.6790    2.0090   18.8530 C.ar   22  PHE22      -0.0042
     19  CD2       15.0860    0.8460   20.1990 C.ar   22  PHE22      -0.0042
     20  CE1       15.6660    2.4960   18.0620 C.ar   22  PHE22      -0.0003
     21  CE2       14.0590    1.3330   19.4080 C.ar   22  PHE22      -0.0003
     22  CZ        14.3490    2.1620   18.3390 C.ar   22  PHE22      -0.0000
     23  N         13.9110   -8.0730   19.9160 N.3    94  LYS94      -0.1231
     24  CA        12.9750   -7.1610   19.2280 C.3    94  LYS94       0.1693
     25  C         13.6180   -5.8460   18.7440 C.2    94  LYS94       0.2592
     26  O         13.5090   -5.4910   17.5770 O.2    94  LYS94      -0.2718
     27  CB        11.8020   -6.8820   20.1930 C.3    94  LYS94       0.0285
     28  CG        10.7500   -5.8390   19.7920 C.3    94  LYS94       0.0035
     29  CD         9.4080   -6.1390   20.5160 C.3    94  LYS94       0.0206
     30  CE         8.4790   -4.9180   20.6480 C.3    94  LYS94       0.1093
     31  NZ         8.5200   -4.2730   22.0090 N.3    94  LYS94      -0.1314
     32  N         14.3050   -5.1490   19.6450 N.am   95  TYR95      -0.1976
     33  CA        14.8970   -3.8330   19.3540 C.3    95  TYR95       0.1639
     34  C         16.3260   -3.8910   18.7660 C.2    95  TYR95       0.2290
     35  O         17.0020   -2.8580   18.6370 O.2    95  TYR95      -0.2864
     36  CB        14.8980   -2.9710   20.6260 C.3    95  TYR95       0.0560
     37  CG        13.5200   -2.6170   21.1310 C.ar   95  TYR95      -0.0198
     38  CD1       13.1210   -2.9400   22.4290 C.ar   95  TYR95      -0.0009
     39  CD2       12.6160   -1.9560   20.3110 C.ar   95  TYR95      -0.0009
     40  CE1       11.8580   -2.6050   22.8970 C.ar   95  TYR95       0.0417
     41  CE2       11.3540   -1.6180   20.7620 C.ar   95  TYR95       0.0417
     42  CZ        10.9730   -1.9490   22.0530 C.ar   95  TYR95       0.1957
     43  OH         9.7090   -1.6060   22.4800 O.3    95  TYR95      -0.2866
     44  N         -0.5220   -3.8970   28.5620 N.3   127  TRP127     -0.1241
     45  CA        -0.6260   -2.4620   28.3520 C.3   127  TRP127      0.1605
     46  C         -1.8760   -2.0950   27.5580 C.2   127  TRP127      0.2264
     47  O         -2.4630   -1.0420   27.7800 O.2   127  TRP127     -0.2867
     48  CB         0.6450   -1.8870   27.7100 C.3   127  TRP127      0.0550
     49  CG         0.8780   -2.1540   26.2460 C.ar  127  TRP127      0.0003
     50  CD1        1.6860   -3.1110   25.7130 C.ar  127  TRP127      0.0946
     51  CD2        0.3830   -1.3900   25.1390 C.ar  127  TRP127      0.0152
     52  NE1        1.6950   -3.0210   24.3460 N.ar  127  TRP127     -0.2442
     53  CE2        0.8980   -1.9720   23.9660 C.ar  127  TRP127      0.0810
     54  CE3       -0.4630   -0.2810   25.0230 C.ar  127  TRP127      0.0012
     55  CZ2        0.6130   -1.4690   22.6920 C.ar  127  TRP127      0.0191
     56  CZ3       -0.7580    0.1990   23.7560 C.ar  127  TRP127      0.0001
     57  CH2       -0.2240   -0.4010   22.6130 C.ar  127  TRP127      0.0015
     58  N         -5.2760    0.0570   29.0040 N.3   131  ILE131     -0.1245
     59  CA        -5.9380    1.1890   28.3590 C.3   131  ILE131      0.1561
     60  C         -7.4420    0.9420   28.2430 C.2   131  ILE131      0.2260
     61  O         -8.2540    1.8030   28.6060 O.2   131  ILE131     -0.2867
     62  CB        -5.3590    1.4830   26.9410 C.3   131  ILE131      0.0252
     63  CG1       -3.9160    1.9990   27.0360 C.3   131  ILE131      0.0019
     64  CG2       -6.2210    2.5270   26.2090 C.3   131  ILE131      0.0019
     65  CD1       -3.1640    1.9490   25.7440 C.3   131  ILE131      0.0001
     66  N         -3.5510    5.2940   31.6250 N.3   137  GLU137     -0.1245
     67  CA        -3.7620    6.2720   30.5500 C.3   137  GLU137      0.1567
     68  C         -5.2210    6.6480   30.3570 C.2   137  GLU137      0.2260
     69  O         -5.6320    6.9620   29.2390 O.2   137  GLU137     -0.2867
     70  CB        -3.2210    5.7280   29.2210 C.3   137  GLU137      0.0388
     71  CG        -1.7770    5.2450   29.2700 C.3   137  GLU137      0.1160
     72  CD        -1.2500    4.9000   27.8910 C.2   137  GLU137      0.3649
     73  OE1       -0.8380    3.7600   27.6630 O.co2 137  GLU137     -0.2457
     74  OE2       -1.2580    5.7660   27.0200 O.co2 137  GLU137     -0.2457
     75  N         -5.8610   10.2200   29.1020 N.3   140  ARG140     -0.1245
     76  CA        -5.2580   10.5640   27.8130 C.3   140  ARG140      0.1563
     77  C         -6.1820   10.2660   26.6510 C.2   140  ARG140      0.2260
     78  O         -5.8960   10.6640   25.5240 O.2   140  ARG140     -0.2867
     79  CB        -3.9530    9.8100   27.5990 C.3   140  ARG140      0.0307
     80  CG        -2.9520   10.0260   28.6940 C.3   140  ARG140      0.0489
     81  CD        -1.7460    9.1380   28.4780 C.3   140  ARG140      0.2205
     82  NE        -0.7970    9.7880   27.5890 N.pl3 140  ARG140     -0.0865
     83  CZ        -0.5220    9.4220   26.3450 C.cat 140  ARG140      0.5346
     84  NH1       -1.0810    8.3620   25.7910 N.pl3 140  ARG140      0.1354
     85  NH2        0.3590   10.1170   25.6600 N.pl3 140  ARG140      0.1354
     86  N         -6.4580    6.9510   21.2600 N.3   155  ILE155     -0.1231
     87  CA        -5.4970    7.4740   22.2390 C.3   155  ILE155      0.1678
     88  C         -4.1490    7.7630   21.5720 C.2   155  ILE155      0.2434
     89  O         -3.7850    7.0730   20.6180 O.2   155  ILE155     -0.2733
     90  CB        -5.3250    6.4800   23.4180 C.3   155  ILE155      0.0265
     91  CG1       -4.6320    7.1470   24.6010 C.3   155  ILE155      0.0019
     92  CG2       -4.5820    5.1960   22.9700 C.3   155  ILE155      0.0020
     93  CD1       -4.6390    6.3100   25.8490 C.3   155  ILE155      0.0001
     94  N         -3.4280    8.8130   22.0300 N.am  156  PRO156     -0.2718
     95  CA        -2.0980    9.0440   21.4540 C.3   156  PRO156      0.1535
     96  C         -1.1830    7.8390   21.5960 C.2   156  PRO156      0.2599
     97  O         -1.1550    7.1960   22.6510 O.2   156  PRO156     -0.2715
     98  CB        -1.5590   10.2350   22.2640 C.3   156  PRO156      0.0310
     99  CG        -2.7810   10.9650   22.7220 C.3   156  PRO156      0.0237
    100  CD        -3.7870    9.8720   23.0020 C.3   156  PRO156      0.0939
    101  N         -0.4530    7.5240   20.5310 N.am  157  ASP157     -0.1958
    102  CA         0.5210    6.4520   20.5790 C.3   157  ASP157      0.1840
    103  C          1.7280    6.9230   21.3910 C.2   157  ASP157      0.2621
    104  O          1.9670    8.1190   21.4980 O.2   157  ASP157     -0.2715
    105  CB         0.9110    6.0380   19.1590 C.3   157  ASP157      0.1450
    106  CG         1.8350    4.8290   19.1230 C.2   157  ASP157      0.3671
    107  OD1        3.0730    4.9990   19.2200 O.co2 157  ASP157     -0.2456
    108  OD2        1.3300    3.7030   18.9510 O.co2 157  ASP157     -0.2456
    109  N          2.4610    5.9650   21.9640 N.am  158  LEU158     -0.1977
    110  CA         3.6910    6.1930   22.7700 C.3   158  LEU158      0.1596
    111  C          4.8010    6.9600   22.0320 C.2   158  LEU158      0.2287
    112  O          5.4980    7.7850   22.6290 O.2   158  LEU158     -0.2864
    113  CB         4.2260    4.8300   23.2630 C.3   158  LEU158      0.0297
    114  CG         5.5790    4.7140   23.9800 C.3   158  LEU158      0.0022
    115  CD1        5.5760    5.5250   25.2640 C.3   158  LEU158      0.0001
    116  CD2        5.8980    3.2870   24.2780 C.3   158  LEU158      0.0001
    117  N         -3.4790    5.9860   18.0610 N.3   171  ILE171     -0.1245
    118  CA        -3.9710    4.6400   17.7840 C.3   171  ILE171      0.1561
    119  C         -5.4280    4.5050   18.2490 C.2   171  ILE171      0.2260
    120  O         -5.8260    5.1070   19.2510 O.2   171  ILE171     -0.2867
    121  CB        -3.0970    3.5040   18.4370 C.3   171  ILE171      0.0252
    122  CG1       -2.7770    3.8260   19.8990 C.3   171  ILE171      0.0019
    123  CG2       -1.8210    3.2780   17.6300 C.3   171  ILE171      0.0019
    124  CD1       -2.0730    2.7140   20.6300 C.3   171  ILE171      0.0001
    125  N          2.9540   -5.1830   15.2370 N.3   224  SER224     -0.1202
    126  CA         3.9490   -5.3620   16.2940 C.3   224  SER224      0.2020
    127  C          3.3290   -6.0410   17.4990 C.2   224  SER224      0.2618
    128  O          4.0170   -6.7000   18.2700 O.2   224  SER224     -0.2717
    129  CB         4.5410   -4.0230   16.7140 C.3   224  SER224      0.2103
    130  OG         5.4370   -3.5510   15.7350 O.3   224  SER224     -0.2182
    131  N          2.0210   -5.8810   17.6560 N.am  225  TYR225     -0.1975
    132  CA         1.2810   -6.5740   18.7050 C.3   225  TYR225      0.1639
    133  C         -0.0800   -7.0130   18.1760 C.2   225  TYR225      0.2290
    134  O         -0.6780   -6.3470   17.3310 O.2   225  TYR225     -0.2864
    135  CB         1.1530   -5.7000   19.9540 C.3   225  TYR225      0.0560
    136  CG         0.7220   -4.2790   19.6860 C.ar  225  TYR225     -0.0198
    137  CD1       -0.5690   -3.8660   19.9700 C.ar  225  TYR225     -0.0009
    138  CD2        1.6070   -3.3460   19.1630 C.ar  225  TYR225     -0.0009
    139  CE1       -0.9750   -2.5630   19.7300 C.ar  225  TYR225      0.0417
    140  CE2        1.2100   -2.0350   18.9260 C.ar  225  TYR225      0.0417
    141  CZ        -0.0870   -1.6570   19.2090 C.ar  225  TYR225      0.1957
    142  OH        -0.5070   -0.3730   18.9860 O.3   225  TYR225     -0.2866
    143  N          3.9780   -2.5180    4.4570 N.3   246  ARG246     -0.1245
    144  CA         3.4040   -2.7570    5.7780 C.3   246  ARG246      0.1563
    145  C          2.0330   -2.1290    6.0600 C.2   246  ARG246      0.2260
    146  O          1.2430   -2.6940    6.8130 O.2   246  ARG246     -0.2867
    147  CB         4.3880   -2.3310    6.8680 C.3   246  ARG246      0.0307
    148  CG         4.0250   -2.9310    8.2260 C.3   246  ARG246      0.0489
    149  CD         5.1080   -2.7480    9.2460 C.3   246  ARG246      0.2205
    150  NE         4.7070   -3.3740   10.4970 N.pl3 246  ARG246     -0.0865
    151  CZ         5.1500   -3.0230   11.6990 C.cat 246  ARG246      0.5346
    152  NH1        6.0100   -2.0190   11.8440 N.pl3 246  ARG246      0.1354
    153  NH2        4.7010   -3.6520   12.7750 N.pl3 246  ARG246      0.1354
@<TRIPOS>BOND
     1   143   144    1
     2   144   145    1
     3   144   147    1
     4   145   146    2
     5   147   148    1
     6   148   149    1
     7   149   150    1
     8   150   151    2
     9   151   152    1
    10   151   153    1
    11    10     9    1
    12   125   126    1
    13    11     9    1
    14     9     8    2
    15     8     7    1
    16     7     6    1
    17     6     5    1
    18   130   129    1
    19   126   129    1
    20   126   127    1
    21     5     2    1
    22   134   133    2
    23   127   131   am
    24   127   128    2
    25     2     3    1
    26     2     1    1
    27    26    25    2
    28   123   121    1
    29     3     4    2
    30   131   132    1
    31   118   117    1
    32   118   119    1
    33   118   121    1
    34    20    22   ar
    35    20    18   ar
    36   133   132    1
    37   119   120    2
    38    22    21   ar
    39   121   122    1
    40    35    34    2
    41   132   135    1
    42    25    24    1
    43    25    32   am
    44    34    33    1
    45    18    17   ar
    46   140   138   ar
    47   140   141   ar
    48   108   106   ar
    49   142   141    1
    50   106   105    1
    51   106   107   ar
    52   105   102    1
    53   138   136   ar
    54   141   139   ar
    55    24    23    1
    56    24    27    1
    57    33    32    1
    58    33    36    1
    59    21    19   ar
    60   136   135    1
    61   136   137   ar
    62   139   137   ar
    63    28    27    1
    64    28    29    1
    65   122   124    1
    66    17    19   ar
    67    17    16    1
    68    39    41   ar
    69    39    37   ar
    70    29    30    1
    71   101   102    1
    72   101    96   am
    73   102   103    1
    74    89    88    2
    75    36    37    1
    76    30    31    1
    77    41    42   ar
    78    16    13    1
    79    12    13    1
    80    37    38   ar
    81    86    87    1
    82   103   104    2
    83   103   109   am
    84    95    96    1
    85    95    94    1
    86    95    98    1
    87    88    94   am
    88    88    87    1
    89    96    97    2
    90    13    14    1
    91    15    14    2
    92   109   110    1
    93    94   100    1
    94   111   112    2
    95   111   110    1
    96    42    43    1
    97    42    40   ar
    98    87    90    1
    99    98    99    1
   100    38    40   ar
   101    57    55   ar
   102    57    56   ar
   103    55    53   ar
   104    99   100    1
   105   110   113    1
   106    92    90    1
   107   113   114    1
   108    90    91    1
   109    56    54   ar
   110    53    52   ar
   111    53    51   ar
   112   114   116    1
   113   114   115    1
   114    52    50   ar
   115    91    93    1
   116    54    51   ar
   117    51    49   ar
   118    78    77    2
   119    85    83    1
   120    50    49   ar
   121    65    63    1
   122    84    83    1
   123    64    62    1
   124    49    48    1
   125    83    82    2
   126    77    76    1
   127    62    63    1
   128    62    59    1
   129    74    72   ar
   130    46    47    2
   131    46    45    1
   132    82    81    1
   133    79    76    1
   134    79    80    1
   135    73    72   ar
   136    48    45    1
   137    76    75    1
   138    72    71    1
   139    60    59    1
   140    60    61    2
   141    45    44    1
   142    59    58    1
   143    81    80    1
   144    70    71    1
   145    70    67    1
   146    69    68    2
   147    68    67    1
   148    67    66    1
