@<TRIPOS>MOLECULE
tmp/3blaB00.pdb
 108 105 0 0 0
SMALL
GASTEIGER

@<TRIPOS>ATOM
      1  N         12.1010   11.5790  -23.3220 N.3   128  TRP128     -0.1241
      2  CA        13.2480   10.9490  -22.6730 C.3   128  TRP128      0.1605
      3  C         12.9790    9.4630  -22.4730 C.2   128  TRP128      0.2264
      4  O         13.8920    8.6380  -22.5580 O.2   128  TRP128     -0.2867
      5  CB        13.6140   11.6470  -21.3510 C.3   128  TRP128      0.0550
      6  CG        12.6200   11.4940  -20.2480 C.ar  128  TRP128      0.0003
      7  CD1       11.6140   12.3580  -19.9210 C.ar  128  TRP128      0.0946
      8  CD2       12.5400   10.4100  -19.3130 C.ar  128  TRP128      0.0152
      9  NE1       10.9110   11.8750  -18.8440 N.ar  128  TRP128     -0.2442
     10  CE2       11.4620   10.6830  -18.4500 C.ar  128  TRP128      0.0810
     11  CE3       13.2720    9.2350  -19.1270 C.ar  128  TRP128      0.0012
     12  CZ2       11.0970    9.8180  -17.4120 C.ar  128  TRP128      0.0191
     13  CZ3       12.9080    8.3780  -18.0980 C.ar  128  TRP128      0.0001
     14  CH2       11.8330    8.6750  -17.2530 C.ar  128  TRP128      0.0015
     15  N         14.9540    5.8970  -24.5780 N.3   132  ILE132     -0.1245
     16  CA        15.4540    4.6600  -23.9540 C.3   132  ILE132      0.1561
     17  C         14.8740    3.4370  -24.6620 C.2   132  ILE132      0.2260
     18  O         15.6160    2.5400  -25.0640 O.2   132  ILE132     -0.2867
     19  CB        15.1070    4.5920  -22.4430 C.3   132  ILE132      0.0252
     20  CG1       15.8310    5.6980  -21.6750 C.3   132  ILE132      0.0019
     21  CG2       15.4590    3.2250  -21.8450 C.3   132  ILE132      0.0019
     22  CD1       15.5040    5.7000  -20.2100 C.3   132  ILE132      0.0001
     23  N         21.0900    6.1080  -23.4440 N.3   138  GLU138     -0.1245
     24  CA        21.2300    5.2280  -22.2810 C.3   138  GLU138      0.1567
     25  C         21.2260    3.7330  -22.6100 C.2   138  GLU138      0.2260
     26  O         21.0740    2.9010  -21.7120 O.2   138  GLU138     -0.2867
     27  CB        20.1460    5.5230  -21.2230 C.3   138  GLU138      0.0388
     28  CG        19.9480    7.0130  -20.8890 C.3   138  GLU138      0.1160
     29  CD        19.1290    7.2420  -19.6190 C.2   138  GLU138      0.3649
     30  OE1       19.1650    6.3710  -18.7320 O.co2 138  GLU138     -0.2457
     31  OE2       18.4650    8.2960  -19.5020 O.co2 138  GLU138     -0.2457
     32  N         23.3860    1.6770  -20.5060 N.3   141  ARG141     -0.1245
     33  CA        22.9850    1.4720  -19.0970 C.3   141  ARG141      0.1563
     34  C         21.8730    0.4440  -18.8510 C.2   141  ARG141      0.2260
     35  O         21.5100    0.1990  -17.7060 O.2   141  ARG141     -0.2867
     36  CB        22.5570    2.8010  -18.4700 C.3   141  ARG141      0.0307
     37  CG        23.4610    3.9830  -18.8140 C.3   141  ARG141      0.0489
     38  CD        23.4890    5.0160  -17.6950 C.3   141  ARG141      0.2205
     39  NE        22.1460    5.2730  -17.1780 N.pl3 141  ARG141     -0.0865
     40  CZ        21.7870    5.2920  -15.8910 C.cat 141  ARG141      0.5346
     41  NH1       22.6680    5.0940  -14.9050 N.pl3 141  ARG141      0.1354
     42  NH2       20.5170    5.5350  -15.5850 N.pl3 141  ARG141      0.1354
     43  N         16.1590   -0.4900  -16.3040 N.3   156  ILE156     -0.1231
     44  CA        17.2160    0.5030  -16.3560 C.3   156  ILE156      0.1678
     45  C         17.3600    1.2070  -15.0090 C.2   156  ILE156      0.2434
     46  O         16.3560    1.5470  -14.3760 O.2   156  ILE156     -0.2733
     47  CB        16.9570    1.5320  -17.5080 C.3   156  ILE156      0.0265
     48  CG1       18.2040    2.3790  -17.7850 C.3   156  ILE156      0.0019
     49  CG2       15.7460    2.4150  -17.2080 C.3   156  ILE156      0.0020
     50  CD1       18.0940    3.2330  -19.0180 C.3   156  ILE156      0.0001
     51  N         18.6130    1.4030  -14.5530 N.am  157  PRO157     -0.2718
     52  CA        18.8800    2.2030  -13.3710 C.3   157  PRO157      0.1535
     53  C         18.2620    3.5780  -13.4700 C.2   157  PRO157      0.2599
     54  O         18.1830    4.1430  -14.5600 O.2   157  PRO157     -0.2715
     55  CB        20.4080    2.3310  -13.3740 C.3   157  PRO157      0.0310
     56  CG        20.8680    1.1240  -14.0280 C.3   157  PRO157      0.0237
     57  CD        19.8610    0.8580  -15.1110 C.3   157  PRO157      0.0939
     58  N         17.8250    4.0990  -12.3320 N.am  158  ASP158     -0.1958
     59  CA        17.3330    5.4550  -12.2510 C.3   158  ASP158      0.1840
     60  C         18.5280    6.4010  -12.2510 C.2   158  ASP158      0.2622
     61  O         19.6430    5.9980  -11.9200 O.2   158  ASP158     -0.2715
     62  CB        16.5080    5.6270  -10.9790 C.3   158  ASP158      0.1450
     63  CG        15.9830    7.0310  -10.8160 C.2   158  ASP158      0.3671
     64  OD1       16.4810    7.7310   -9.9160 O.co2 158  ASP158     -0.2456
     65  OD2       15.1010    7.4450  -11.5980 O.co2 158  ASP158     -0.2456
     66  N         18.2920    7.6460  -12.6570 N.am  159  LEU159     -0.1963
     67  CA        19.2910    8.7170  -12.5600 C.3   159  LEU159      0.1728
     68  C         19.9250    8.8190  -11.1790 C.2   159  LEU159      0.2616
     69  O         21.1380    8.9120  -11.0590 O.2   159  LEU159     -0.2715
     70  CB        18.6390   10.0650  -12.8960 C.3   159  LEU159      0.0311
     71  CG        18.7380   10.5540  -14.3410 C.3   159  LEU159      0.0022
     72  CD1       18.7530    9.3840  -15.2930 C.3   159  LEU159      0.0001
     73  CD2       17.6100   11.5360  -14.6710 C.3   159  LEU159      0.0001
     74  N         19.0900    8.7950  -10.1420 N.am  160  LYS160     -0.1977
     75  CA        19.5180    9.0900   -8.7630 C.3   160  LYS160      0.1596
     76  C         20.5350    8.1030   -8.2000 C.2   160  LYS160      0.2287
     77  O         21.2170    8.4080   -7.2160 O.2   160  LYS160     -0.2864
     78  CB        18.2960    9.1500   -7.8230 C.3   160  LYS160      0.0298
     79  CG        17.4890   10.4790   -7.8920 C.3   160  LYS160      0.0038
     80  CD        15.9900   10.2940   -8.2670 C.3   160  LYS160      0.0206
     81  CE        15.7200   10.6730   -9.7430 C.3   160  LYS160      0.1093
     82  NZ        14.3540   10.3010  -10.2260 N.3   160  LYS160     -0.1314
     83  N         14.3120    1.1060  -12.8220 N.3   172  ILE172     -0.1245
     84  CA        12.9740    1.3940  -13.3430 C.3   172  ILE172      0.1561
     85  C         12.6730    0.4940  -14.5380 C.2   172  ILE172      0.2260
     86  O         13.5110    0.3370  -15.4280 O.2   172  ILE172     -0.2867
     87  CB        12.8460    2.8650  -13.7740 C.3   172  ILE172      0.0252
     88  CG1       12.7910    3.7730  -12.5420 C.3   172  ILE172      0.0019
     89  CG2       11.6060    3.0690  -14.6220 C.3   172  ILE172      0.0019
     90  CD1       13.2520    5.1820  -12.8110 C.3   172  ILE172      0.0001
     91  N          4.5490   10.2020  -11.9660 N.3   225  SER225     -0.1202
     92  CA         5.2140   11.4570  -12.3050 C.3   225  SER225      0.2020
     93  C          5.2930   11.6900  -13.8060 C.2   225  SER225      0.2618
     94  O          5.4400   12.8270  -14.2470 O.2   225  SER225     -0.2717
     95  CB         6.6080   11.5110  -11.6880 C.3   225  SER225      0.2103
     96  OG         6.4940   11.6980  -10.2920 O.3   225  SER225     -0.2182
     97  N          5.2090   10.6190  -14.5860 N.am  226  TYR226     -0.1975
     98  CA         5.0600   10.7350  -16.0370 C.3   226  TYR226      0.1639
     99  C          4.1230    9.6360  -16.5210 C.2   226  TYR226      0.2290
    100  O          4.1220    8.5340  -15.9860 O.2   226  TYR226     -0.2864
    101  CB         6.4180   10.6920  -16.7500 C.3   226  TYR226      0.0560
    102  CG         7.3710    9.6190  -16.2630 C.ar  226  TYR226     -0.0198
    103  CD1        7.5800    8.4670  -17.0070 C.ar  226  TYR226     -0.0009
    104  CD2        8.0780    9.7690  -15.0700 C.ar  226  TYR226     -0.0009
    105  CE1        8.4580    7.4770  -16.5760 C.ar  226  TYR226      0.0417
    106  CE2        8.9580    8.7830  -14.6230 C.ar  226  TYR226      0.0417
    107  CZ         9.1410    7.6310  -15.3830 C.ar  226  TYR226      0.1957
    108  OH        10.0080    6.6280  -14.9680 O.3   226  TYR226     -0.2866
@<TRIPOS>BOND
     1    18    17    2
     2    17    16    1
     3    15    16    1
     4    16    19    1
     5    23    24    1
     6     1     2    1
     7     2     3    1
     8     2     5    1
     9    25    24    1
    10    25    26    2
    11     4     3    2
    12    19    21    1
    13    19    20    1
    14    24    27    1
    15    20    22    1
    16     5     6    1
    17    27    28    1
    18    28    29    1
    19    32    33    1
    20     6     7   ar
    21     6     8   ar
    22     7     9   ar
    23    29    31   ar
    24    29    30   ar
    25     8    11   ar
    26     8    10   ar
    27    11    13   ar
    28    33    34    1
    29    33    36    1
    30    50    48    1
    31    34    35    2
    32     9    10   ar
    33    37    36    1
    34    37    38    1
    35    10    12   ar
    36    13    14   ar
    37    48    47    1
    38    38    39    1
    39    47    49    1
    40    47    44    1
    41    12    14   ar
    42    39    40    2
    43   103   105   ar
    44   103   102   ar
    45   101   102    1
    46   101    98    1
    47   105   107   ar
    48    99    98    1
    49    99   100    2
    50    44    43    1
    51    44    45    1
    52   102   104   ar
    53    98    97    1
    54    40    42    1
    55    40    41    1
    56    86    85    2
    57   107   108    1
    58   107   106   ar
    59    72    71    1
    60    57    51    1
    61    57    56    1
    62   104   106   ar
    63    45    51   am
    64    45    46    2
    65    73    71    1
    66    89    87    1
    67    97    93   am
    68    54    53    2
    69    51    52    1
    70    85    84    1
    71    71    70    1
    72    94    93    2
    73    56    55    1
    74    93    92    1
    75    87    84    1
    76    87    88    1
    77    53    52    1
    78    53    58   am
    79    55    52    1
    80    84    83    1
    81    70    67    1
    82    90    88    1
    83    66    67    1
    84    66    60   am
    85    67    68    1
    86    58    59    1
    87    92    91    1
    88    92    95    1
    89    60    59    1
    90    60    61    2
    91    59    62    1
    92    95    96    1
    93    65    63   ar
    94    68    69    2
    95    68    74   am
    96    62    63    1
    97    63    64   ar
    98    82    81    1
    99    74    75    1
   100    81    80    1
   101    75    76    1
   102    75    78    1
   103    80    79    1
   104    76    77    2
   105    79    78    1
