@<TRIPOS>MOLECULE
tmp/3bldA00.pdb
 110 102 0 0 0
SMALL
GASTEIGER

@<TRIPOS>ATOM
      1  N          9.6870   11.7120   22.1660 N.3    92  ASP92      -0.1225
      2  CA        10.5620   12.7360   22.7290 C.3    92  ASP92       0.1805
      3  C          9.8020   13.4440   23.8660 C.2    92  ASP92       0.2598
      4  O          8.6050   13.2350   24.1420 O.2    92  ASP92      -0.2718
      5  CB        11.1060   13.6340   21.6490 C.3    92  ASP92       0.1424
      6  CG        10.0460   14.3930   20.9160 C.2    92  ASP92       0.3668
      7  OD1        8.9450   14.5770   21.4640 O.co2  92  ASP92      -0.2456
      8  OD2       10.3400   14.7660   19.7600 O.co2  92  ASP92      -0.2456
      9  N         10.5270   14.3350   24.5780 N.am   93  SER93      -0.1938
     10  CA         9.9430   14.9400   25.7640 C.3    93  SER93       0.2055
     11  C          9.1350   16.2060   25.5210 C.2    93  SER93       0.2643
     12  O          8.4130   16.6720   26.3920 O.2    93  SER93      -0.2714
     13  CB        11.0770   15.3570   26.7190 C.3    93  SER93       0.2130
     14  OG        11.4370   16.6390   26.2030 O.3    93  SER93      -0.2179
     15  N          9.2710   16.7910   24.3550 N.am   94  GLY94      -0.1954
     16  CA         8.5960   18.0170   23.9870 C.3    94  GLY94       0.1869
     17  C          9.4670   19.2450   24.1440 C.2    94  GLY94       0.2309
     18  O          9.1750   20.2770   23.5100 O.2    94  GLY94      -0.2863
     19  N         12.5170   20.2270   23.1140 N.3    96  PHE96      -0.1227
     20  CA        13.2880   20.7260   21.9980 C.3    96  PHE96       0.1736
     21  C         12.4220   21.6100   21.1120 C.2    96  PHE96       0.2595
     22  O         12.8030   22.6920   20.6990 O.2    96  PHE96      -0.2718
     23  CB        13.8760   19.5700   21.1570 C.3    96  PHE96       0.0547
     24  CG        14.6770   20.0600   19.9520 C.ar   96  PHE96      -0.0202
     25  CD1       16.0000   20.4290   20.0920 C.ar   96  PHE96      -0.0042
     26  CD2       14.1050   20.1530   18.6870 C.ar   96  PHE96      -0.0042
     27  CE1       16.7270   20.8920   19.0120 C.ar   96  PHE96      -0.0003
     28  CE2       14.8100   20.6290   17.5960 C.ar   96  PHE96      -0.0003
     29  CZ        16.1410   20.9980   17.7660 C.ar   96  PHE96      -0.0000
     30  N         11.2530   21.0830   20.7890 N.am   97  GLN97      -0.1979
     31  CA        10.3710   21.7720   19.8630 C.3    97  GLN97       0.1601
     32  C          9.7570   22.9750   20.5500 C.2    97  GLN97       0.2287
     33  O          9.4120   23.9070   19.8180 O.2    97  GLN97      -0.2864
     34  CB         9.2800   20.8570   19.3100 C.3    97  GLN97       0.0394
     35  CG         9.8750   19.8000   18.3910 C.3    97  GLN97       0.0908
     36  CD        10.5610   18.6720   19.1460 C.2    97  GLN97       0.2608
     37  OE1       10.4050   18.4930   20.3660 O.2    97  GLN97      -0.2717
     38  NE2       11.3350   17.8900   18.3930 N.am   97  GLN97      -0.0878
     39  N         14.4350   17.5300   29.4450 N.3   132  ASP132     -0.1239
     40  CA        15.6860   18.2580   29.6180 C.3   132  ASP132      0.1674
     41  C         15.4930   19.6990   29.2050 C.2   132  ASP132      0.2266
     42  O         14.4670   20.1340   28.6560 O.2   132  ASP132     -0.2867
     43  CB        16.8220   17.5940   28.8300 C.3   132  ASP132      0.1410
     44  CG        16.6230   17.5560   27.3430 C.2   132  ASP132      0.3668
     45  OD1       15.4840   17.7100   26.8850 O.co2 132  ASP132     -0.2456
     46  OD2       17.6060   17.3100   26.5610 O.co2 132  ASP132     -0.2456
     47  N         17.2180   22.4780   26.7930 N.3   134  CYS134     -0.1235
     48  CA        17.9730   22.6480   25.5900 C.3   134  CYS134      0.1677
     49  C         19.1280   23.6020   25.8560 C.2   134  CYS134      0.2270
     50  O         18.9200   24.6250   26.4810 O.2   134  CYS134     -0.2867
     51  CB        17.0660   23.1940   24.4970 C.3   134  CYS134      0.0956
     52  SG        17.8370   23.5070   22.9200 S.3   134  CYS134     -0.0801
     53  N         19.0550   11.8370   29.1800 N.3   177  ILE177     -0.1245
     54  CA        19.7240   12.6320   28.1440 C.3   177  ILE177      0.1561
     55  C         20.9500   13.3440   28.6870 C.2   177  ILE177      0.2260
     56  O         20.8790   14.1980   29.5890 O.2   177  ILE177     -0.2867
     57  CB        18.7920   13.6250   27.4390 C.3   177  ILE177      0.0252
     58  CG1       17.5210   12.9750   26.9300 C.3   177  ILE177      0.0019
     59  CG2       19.5660   14.3410   26.3190 C.3   177  ILE177      0.0019
     60  CD1       16.4710   13.9560   26.4840 C.3   177  ILE177      0.0001
     61  N         23.6770   16.1350   28.4410 N.3   179  GLN179     -0.1245
     62  CA        23.9820   17.4620   28.0810 C.3   179  GLN179      0.1566
     63  C         25.4320   17.8250   28.3940 C.2   179  GLN179      0.2260
     64  O         26.2620   16.9870   28.7470 O.2   179  GLN179     -0.2867
     65  CB        22.9150   18.3690   28.7220 C.3   179  GLN179      0.0367
     66  CG        21.5360   18.1000   28.1480 C.3   179  GLN179      0.0905
     67  CD        21.3020   18.4900   26.7000 C.2   179  GLN179      0.2608
     68  OE1       22.1430   19.0610   26.0380 O.2   179  GLN179     -0.2717
     69  NE2       20.1350   18.1540   26.1350 N.am  179  GLN179     -0.0878
     70  N         22.3740   14.2330   24.0140 N.3   205  GLY205     -0.1210
     71  CA        21.6500   15.4210   23.6500 C.3   205  GLY205      0.1956
     72  C         22.5590   16.5470   23.2160 C.2   205  GLY205      0.2612
     73  O         23.7480   16.4910   23.4130 O.2   205  GLY205     -0.2717
     74  N         21.9380   17.5940   22.6670 N.am  206  GLY206     -0.1942
     75  CA        22.6250   18.8440   22.4670 C.3   206  GLY206      0.2014
     76  C         23.5170   18.8770   21.2590 C.2   206  GLY206      0.2639
     77  O         24.2440   19.8790   21.0860 O.2   206  GLY206     -0.2714
     78  N         23.4800   17.8960   20.3580 N.am  207  LEU207     -0.1963
     79  CA        24.3670   17.9130   19.1790 C.3   207  LEU207      0.1728
     80  C         23.4930   18.1090   17.9550 C.2   207  LEU207      0.2616
     81  O         22.2550   18.1740   18.0310 O.2   207  LEU207     -0.2715
     82  CB        25.2400   16.6690   19.1140 C.3   207  LEU207      0.0311
     83  CG        26.2480   16.5500   20.2610 C.3   207  LEU207      0.0022
     84  CD1       27.0530   15.2680   20.1090 C.3   207  LEU207      0.0001
     85  CD2       27.1810   17.7430   20.3550 C.3   207  LEU207      0.0001
     86  N         24.1480   18.2380   16.8080 N.am  208  ALA208     -0.1977
     87  CA        23.4210   18.5230   15.5670 C.3   208  ALA208      0.1597
     88  C         22.5950   19.8020   15.6940 C.2   208  ALA208      0.2287
     89  O         21.4410   19.8980   15.2690 O.2   208  ALA208     -0.2864
     90  CB        22.5480   17.3640   15.1490 C.3   208  ALA208      0.0319
     91  N         20.3820   11.9130   19.4140 N.3   236  MET236     -0.1230
     92  CA        19.1640   12.6030   19.0680 C.3   236  MET236      0.1702
     93  C         19.3570   13.5830   17.9040 C.2   236  MET236      0.2592
     94  O         20.2680   14.3820   17.9230 O.2   236  MET236     -0.2718
     95  CB        18.6030   13.3480   20.2900 C.3   236  MET236      0.0401
     96  CG        18.3120   12.3800   21.4480 C.3   236  MET236      0.0596
     97  SD        17.5370   13.1560   22.8720 S.3   236  MET236     -0.1393
     98  CE        15.8410   13.1680   22.3190 C.3   236  MET236      0.0692
     99  N         18.4780   13.5590   16.9300 N.am  237  GLY237     -0.1957
    100  CA        18.4670   14.5440   15.8660 C.3   237  GLY237      0.1869
    101  C         19.5310   14.3270   14.8140 C.2   237  GLY237      0.2309
    102  O         19.8720   15.2920   14.1440 O.2   237  GLY237     -0.2863
    103  N         17.3560    9.0780   14.8420 N.3   256  ASP256     -0.1239
    104  CA        16.1170    9.5990   14.3180 C.3   256  ASP256      0.1674
    105  C         16.4640   10.6930   13.3210 C.2   256  ASP256      0.2266
    106  O         17.2840   10.5420   12.4160 O.2   256  ASP256     -0.2867
    107  CB        15.1550   10.0910   15.4010 C.3   256  ASP256      0.1410
    108  CG        15.5530   11.3970   15.9990 C.2   256  ASP256      0.3668
    109  OD1       16.2250   11.4760   17.0270 O.co2 256  ASP256     -0.2456
    110  OD2       15.1600   12.4470   15.4160 O.co2 256  ASP256     -0.2456
@<TRIPOS>BOND
     1   106   105    2
     2   105   104    1
     3   102   101    2
     4   104   103    1
     5   104   107    1
     6   101   100    1
     7    90    87    1
     8    89    88    2
     9   107   108    1
    10   110   108   ar
    11    87    88    1
    12    87    86    1
    13   100    99    1
    14   108   109   ar
    15    86    80   am
    16    99    93   am
    17    28    29   ar
    18    28    26   ar
    19    29    27   ar
    20    93    94    2
    21    93    92    1
    22    80    81    2
    23    80    79    1
    24    35    36    1
    25    35    34    1
    26    38    36   am
    27    26    24   ar
    28    27    25   ar
    29    92    91    1
    30    92    95    1
    31    82    79    1
    32    82    83    1
    33    36    37    2
    34    79    78    1
    35    34    31    1
    36     8     6   ar
    37    33    32    2
    38    31    32    1
    39    31    30    1
    40    24    25   ar
    41    24    23    1
    42    84    83    1
    43    83    85    1
    44    95    96    1
    45    78    76   am
    46    22    21    2
    47    30    21   am
    48     6     7   ar
    49     6     5    1
    50    77    76    2
    51    21    20    1
    52    23    20    1
    53    76    75    1
    54    96    97    1
    55     5     2    1
    56    20    19    1
    57     1     2    1
    58    98    97    1
    59    75    74    1
    60    74    72   am
    61     2     3    1
    62    52    51    1
    63    72    73    2
    64    72    71    1
    65    18    17    2
    66    71    70    1
    67     3     4    2
    68     3     9   am
    69    16    17    1
    70    16    15    1
    71    15    11   am
    72    51    48    1
    73     9    10    1
    74    11    10    1
    75    11    12    2
    76    48    49    1
    77    48    47    1
    78    10    13    1
    79    49    50    2
    80    68    67    2
    81    69    67   am
    82    14    13    1
    83    59    57    1
    84    60    58    1
    85    46    44   ar
    86    67    66    1
    87    45    44   ar
    88    58    57    1
    89    44    43    1
    90    57    54    1
    91    62    63    1
    92    62    61    1
    93    62    65    1
    94    54    55    1
    95    54    53    1
    96    66    65    1
    97    63    64    2
    98    42    41    2
    99    55    56    2
   100    43    40    1
   101    41    40    1
   102    39    40    1
