@<TRIPOS>MOLECULE
tmp/3bleA00.pdb
 99 93 0 0 0
SMALL
GASTEIGER

@<TRIPOS>ATOM
      1  N         28.1920   22.2000   14.3490 N.3    10  ARG10      -0.1231
      2  CA        29.2170   21.2970   13.8360 C.3    10  ARG10       0.1694
      3  C         29.3320   21.3950   12.3140 C.2    10  ARG10       0.2592
      4  O         30.4100   21.6600   11.7780 O.2    10  ARG10      -0.2718
      5  CB        28.8890   19.8640   14.2480 C.3    10  ARG10       0.0321
      6  CG        29.8990   18.8340   13.7860 C.3    10  ARG10       0.0489
      7  CD        29.1630   17.6810   13.1640 C.3    10  ARG10       0.2205
      8  NE        29.2300   17.7230   11.7200 N.pl3  10  ARG10      -0.0865
      9  CZ        28.3930   17.0900   10.9030 C.cat  10  ARG10       0.5346
     10  NH1       27.3890   16.3630   11.3800 N.pl3  10  ARG10       0.1354
     11  NH2       28.5890   17.1630    9.5950 N.pl3  10  ARG10       0.1354
     12  N         28.2210   21.1990   11.6130 N.am   11  ASP11      -0.1974
     13  CA        28.2460   21.2670   10.1520 C.3    11  ASP11       0.1709
     14  C         28.4940   22.6840    9.6220 C.2    11  ASP11       0.2293
     15  O         29.1430   22.8690    8.5850 O.2    11  ASP11      -0.2864
     16  CB        26.9460   20.7200    9.5690 C.3    11  ASP11       0.1436
     17  CG        27.1510   20.0710    8.2140 C.2    11  ASP11       0.3671
     18  OD1       28.0980   20.4720    7.4970 O.co2  11  ASP11      -0.2456
     19  OD2       26.3650   19.1660    7.8650 O.co2  11  ASP11      -0.2456
     20  N         31.8000   23.6520    9.1000 N.3    14  GLN14      -0.1245
     21  CA        32.3060   23.0130    7.8820 C.3    14  GLN14       0.1566
     22  C         31.9530   23.8020    6.6220 C.2    14  GLN14       0.2260
     23  O         32.6450   23.7070    5.6110 O.2    14  GLN14      -0.2867
     24  CB        31.7300   21.5920    7.7340 C.3    14  GLN14       0.0367
     25  CG        32.2910   20.5470    8.6890 C.3    14  GLN14       0.0905
     26  CD        31.5720   19.2020    8.5810 C.2    14  GLN14       0.2608
     27  OE1       31.4340   18.6370    7.4930 O.2    14  GLN14      -0.2717
     28  NE2       31.1170   18.6850    9.7140 N.am   14  GLN14      -0.0878
     29  N         31.0180   15.1690   17.2720 N.3    75  LEU75      -0.1245
     30  CA        31.2120   14.1800   16.2160 C.3    75  LEU75       0.1561
     31  C         32.6660   13.6940   16.2640 C.2    75  LEU75       0.2260
     32  O         33.6010   14.4990   16.2990 O.2    75  LEU75      -0.2867
     33  CB        30.8970   14.7840   14.8470 C.3    75  LEU75       0.0270
     34  CG        30.9920   13.8100   13.6650 C.3    75  LEU75       0.0019
     35  CD1       29.7990   13.9960   12.7450 C.3    75  LEU75       0.0001
     36  CD2       32.2910   14.0470   12.9200 C.3    75  LEU75       0.0001
     37  N         31.4940    8.4870   13.8180 N.3    98  LEU98      -0.1245
     38  CA        31.3150    8.3260   12.3830 C.3    98  LEU98       0.1561
     39  C         31.8940    6.9820   11.9210 C.2    98  LEU98       0.2260
     40  O         33.1150    6.8140   11.8730 O.2    98  LEU98      -0.2867
     41  CB        32.0510    9.4320   11.6290 C.3    98  LEU98       0.0270
     42  CG        31.3190   10.4860   10.7960 C.3    98  LEU98       0.0019
     43  CD1       32.2890   10.9590    9.7200 C.3    98  LEU98       0.0001
     44  CD2       30.0600    9.9340   10.1530 C.3    98  LEU98       0.0001
     45  N         26.9610    6.9790   13.8680 N.3   138  TYR138     -0.1241
     46  CA        26.5170    7.3370   12.5190 C.3   138  TYR138      0.1605
     47  C         26.8930    6.2220   11.5430 C.2   138  TYR138      0.2264
     48  O         28.0310    5.7530   11.5510 O.2   138  TYR138     -0.2867
     49  CB        27.2420    8.5810   12.0020 C.3   138  TYR138      0.0534
     50  CG        26.6870    9.9330   12.3750 C.ar  138  TYR138     -0.0201
     51  CD1       27.2910   10.7060   13.3710 C.ar  138  TYR138     -0.0009
     52  CD2       25.6140   10.4830   11.6700 C.ar  138  TYR138     -0.0009
     53  CE1       26.8490   12.0000   13.6520 C.ar  138  TYR138      0.0417
     54  CE2       25.1600   11.7720   11.9440 C.ar  138  TYR138      0.0417
     55  CZ        25.7830   12.5220   12.9300 C.ar  138  TYR138      0.1957
     56  OH        25.3460   13.7910   13.1830 O.3   138  TYR138     -0.2866
     57  N         27.7450    6.2370    8.3420 N.3   140  GLU140     -0.1245
     58  CA        28.0850    7.1030    7.2220 C.3   140  GLU140      0.1567
     59  C         27.8620    6.4510    5.8600 C.2   140  GLU140      0.2260
     60  O         28.3100    5.3270    5.6080 O.2   140  GLU140     -0.2867
     61  CB        29.5310    7.5990    7.3410 C.3   140  GLU140      0.0388
     62  CG        29.9310    8.5600    6.2320 C.3   140  GLU140      0.1160
     63  CD        31.3350    9.1140    6.3920 C.2   140  GLU140      0.3649
     64  OE1       32.2450    8.3560    6.7790 O.co2 140  GLU140     -0.2457
     65  OE2       31.5340   10.3110    6.1100 O.co2 140  GLU140     -0.2457
     66  N         22.1550    8.2990    8.3400 N.3   171  PRO171     -0.2116
     67  CA        22.3930    9.4690    7.4970 C.3   171  PRO171      0.1372
     68  C         22.3300    9.3020    5.9870 C.2   171  PRO171      0.2244
     69  O         22.9020    8.3630    5.4350 O.2   171  PRO171     -0.2868
     70  CB        23.7820    9.8970    7.9270 C.3   171  PRO171      0.0268
     71  CG        24.4780    8.5510    8.0620 C.3   171  PRO171      0.0207
     72  CD        23.4290    7.6870    8.7630 C.3   171  PRO171      0.0892
     73  N         23.9140   10.7700    3.9250 N.3   173  THR173     -0.1218
     74  CA        25.1340   11.5510    3.7780 C.3   173  THR173      0.1862
     75  C         25.3040   12.3380    2.4880 C.2   173  THR173      0.2287
     76  O         25.6420   13.5210    2.5270 O.2   173  THR173     -0.2866
     77  CB        26.3670   10.6470    3.9700 C.3   173  THR173      0.1770
     78  OG1       26.1950    9.8780    5.1650 O.3   173  THR173     -0.2211
     79  CG2       27.6260   11.4790    4.0830 C.3   173  THR173      0.0375
     80  N         18.9910   11.2930    9.5290 N.3   201  HIS201     -0.1241
     81  CA        19.8290   12.4770    9.3090 C.3   201  HIS201      0.1621
     82  C         19.8130   12.8580    7.8240 C.2   201  HIS201      0.2264
     83  O         20.6500   12.3970    7.0570 O.2   201  HIS201     -0.2867
     84  CB        21.2540   12.1170    9.7570 C.3   201  HIS201      0.0745
     85  CG        22.2660   13.2130    9.6080 C.ar  201  HIS201      0.0817
     86  ND1       22.6290   14.0370   10.6530 N.ar  201  HIS201     -0.2268
     87  CD2       23.0870   13.5320    8.5800 C.ar  201  HIS201      0.1154
     88  CE1       23.6360   14.8060   10.2790 C.ar  201  HIS201      0.1986
     89  NE2       23.9340   14.5190    9.0250 N.ar  201  HIS201     -0.2212
     90  N         19.9230   15.1740    4.1640 N.3   203  HIS203     -0.1241
     91  CA        20.6610   16.2160    3.4560 C.3   203  HIS203      0.1621
     92  C         19.7710   16.6770    2.3000 C.2   203  HIS203      0.2264
     93  O         19.1360   15.8670    1.6410 O.2   203  HIS203     -0.2867
     94  CB        22.0120   15.6930    2.9760 C.3   203  HIS203      0.0745
     95  CG        23.0630   15.7360    4.0400 C.ar  203  HIS203      0.0817
     96  ND1       23.7800   16.8770    4.3280 N.ar  203  HIS203     -0.2268
     97  CD2       23.4480   14.8110    4.9510 C.ar  203  HIS203      0.1154
     98  CE1       24.5590   16.6530    5.3710 C.ar  203  HIS203      0.1986
     99  NE2       24.3760   15.4070    5.7670 N.ar  203  HIS203     -0.2212
@<TRIPOS>BOND
     1    93    92    2
     2    92    91    1
     3    75    76    2
     4    75    74    1
     5    94    91    1
     6    94    95    1
     7    91    90    1
     8    74    73    1
     9    74    77    1
    10    77    79    1
    11    77    78    1
    12    95    96   ar
    13    95    97   ar
    14    96    98   ar
    15    97    99   ar
    16    98    99   ar
    17    69    68    2
    18    60    59    2
    19    23    22    2
    20    59    58    1
    21    68    67    1
    22    65    63   ar
    23    62    63    1
    24    62    61    1
    25    63    64   ar
    26    22    21    1
    27    83    82    2
    28    58    61    1
    29    58    57    1
    30    27    26    2
    31    18    17   ar
    32    67    70    1
    33    67    66    1
    34    24    21    1
    35    24    25    1
    36    82    81    1
    37    19    17   ar
    38    21    20    1
    39    70    71    1
    40    71    72    1
    41    17    16    1
    42    66    72    1
    43    87    89   ar
    44    87    85   ar
    45    26    25    1
    46    26    28   am
    47    15    14    2
    48    89    88   ar
    49    81    80    1
    50    81    84    1
    51    16    13    1
    52    11     9    1
    53    85    84    1
    54    85    86   ar
    55    14    13    1
    56    43    42    1
    57    13    12    1
    58    44    42    1
    59    88    86   ar
    60    42    41    1
    61     9    10    1
    62     9     8    2
    63    47    48    2
    64    47    46    1
    65    12     3   am
    66    41    38    1
    67    52    54   ar
    68    52    50   ar
    69     8     7    1
    70     4     3    2
    71    40    39    2
    72    39    38    1
    73    54    55   ar
    74    49    50    1
    75    49    46    1
    76     3     2    1
    77    50    51   ar
    78    38    37    1
    79    46    45    1
    80    35    34    1
    81    36    34    1
    82    55    56    1
    83    55    53   ar
    84     7     6    1
    85    51    53   ar
    86    34    33    1
    87     6     5    1
    88     2     5    1
    89     2     1    1
    90    33    30    1
    91    30    31    1
    92    30    29    1
    93    31    32    2
