@<TRIPOS>MOLECULE
tmp/3blhB00.pdb
 93 86 0 0 0
SMALL
GASTEIGER

@<TRIPOS>ATOM
      1  N         16.1680    0.2970  -25.7800 N.3    39  ASN39      -0.1240
      2  CA        14.8260   -0.2820  -25.7060 C.3    39  ASN39       0.1653
      3  C         14.8020   -1.8000  -25.8760 C.2    39  ASN39       0.2266
      4  O         14.1110   -2.5180  -25.1280 O.2    39  ASN39      -0.2867
      5  CB        13.8810    0.3760  -26.7140 C.3    39  ASN39       0.1155
      6  CG        13.5630    1.8170  -26.3570 C.2    39  ASN39       0.2627
      7  OD1       13.8640    2.2860  -25.2500 O.2    39  ASN39      -0.2716
      8  ND2       12.9620    2.5350  -27.3010 N.am   39  ASN39      -0.0877
      9  N         16.1220   -3.4060  -22.8210 N.3    42  GLN42      -0.1245
     10  CA        15.1520   -3.4010  -21.7410 C.3    42  GLN42       0.1566
     11  C         14.0990   -4.4910  -21.9910 C.2    42  GLN42       0.2260
     12  O         13.7270   -5.2240  -21.0790 O.2    42  GLN42      -0.2867
     13  CB        14.5230   -2.0090  -21.6100 C.3    42  GLN42       0.0367
     14  CG        13.5550   -1.8150  -20.4310 C.3    42  GLN42       0.0905
     15  CD        14.2760   -1.5910  -19.1080 C.2    42  GLN42       0.2608
     16  OE1       15.3350   -0.9470  -19.0430 O.2    42  GLN42      -0.2717
     17  NE2       13.6930   -2.1070  -18.0410 N.am   42  GLN42      -0.0878
     18  N         13.8760   -7.7900  -19.4920 N.3    46  GLN46      -0.1245
     19  CA        12.6750   -8.0740  -18.7210 C.3    46  GLN46       0.1566
     20  C         12.2420   -9.4990  -18.9760 C.2    46  GLN46       0.2260
     21  O         11.9500  -10.2340  -18.0390 O.2    46  GLN46      -0.2867
     22  CB        11.5650   -7.0800  -19.0530 C.3    46  GLN46       0.0367
     23  CG        11.8270   -5.7140  -18.4360 C.3    46  GLN46       0.0905
     24  CD        11.0550   -4.5780  -19.0990 C.2    46  GLN46       0.2608
     25  OE1       11.1280   -3.4360  -18.6490 O.2    46  GLN46      -0.2717
     26  NE2       10.3160   -4.8840  -20.1630 N.am   46  GLN46      -0.0878
     27  N         17.3170   -4.6160  -13.4740 N.3    52  GLN52      -0.1245
     28  CA        17.5190   -3.3400  -14.1580 C.3    52  GLN52       0.1566
     29  C         19.0100   -2.9690  -14.1580 C.2    52  GLN52       0.2260
     30  O         19.5230   -2.4190  -15.1240 O.2    52  GLN52      -0.2867
     31  CB        16.6940   -2.2210  -13.5290 C.3    52  GLN52       0.0367
     32  CG        16.7940   -0.9010  -14.2950 C.3    52  GLN52       0.0905
     33  CD        16.1510   -0.9810  -15.6600 C.2    52  GLN52       0.2608
     34  OE1       14.9490   -1.2390  -15.7830 O.2    52  GLN52      -0.2717
     35  NE2       16.9410   -0.7550  -16.6970 N.am   52  GLN52      -0.0878
     36  N         13.9050    6.3960  -11.5480 N.3   172  PHE172     -0.1241
     37  CA        13.2880    6.4660  -12.8660 C.3   172  PHE172      0.1605
     38  C         14.0310    7.4300  -13.7880 C.2   172  PHE172      0.2264
     39  O         14.2370    7.1390  -14.9680 O.2   172  PHE172     -0.2867
     40  CB        11.8220    6.8840  -12.6980 C.3   172  PHE172      0.0534
     41  CG        11.1190    7.2300  -13.9750 C.ar  172  PHE172     -0.0203
     42  CD1       10.3530    6.2790  -14.6370 C.ar  172  PHE172     -0.0042
     43  CD2       11.1890    8.5180  -14.4960 C.ar  172  PHE172     -0.0042
     44  CE1        9.6780    6.5970  -15.8020 C.ar  172  PHE172     -0.0003
     45  CE2       10.5310    8.8420  -15.6750 C.ar  172  PHE172     -0.0003
     46  CZ         9.7690    7.8780  -16.3280 C.ar  172  PHE172     -0.0000
     47  N         17.4240    5.7320  -14.6950 N.3   175  THR175     -0.1203
     48  CA        17.2490    4.7100  -15.7260 C.3   175  THR175      0.1994
     49  C         16.9540    5.3060  -17.1020 C.2   175  THR175      0.2617
     50  O         17.5310    4.8820  -18.1070 O.2   175  THR175     -0.2717
     51  CB        16.1880    3.6920  -15.3270 C.3   175  THR175      0.1784
     52  OG1       16.6620    2.9880  -14.1810 O.3   175  THR175     -0.2211
     53  CG2       15.9120    2.6900  -16.4740 C.3   175  THR175      0.0376
     54  N         16.0740    6.3020  -17.1540 N.am  176  ASN176     -0.1974
     55  CA        15.7480    6.9120  -18.4360 C.3   176  ASN176      0.1688
     56  C         16.8780    7.7230  -19.0480 C.2   176  ASN176      0.2292
     57  O         16.9680    7.8170  -20.2760 O.2   176  ASN176     -0.2864
     58  CB        14.4510    7.7160  -18.3640 C.3   176  ASN176      0.1181
     59  CG        13.2310    6.8180  -18.4180 C.2   176  ASN176      0.2629
     60  OD1       12.8300    6.3570  -19.4920 O.2   176  ASN176     -0.2716
     61  ND2       12.6650    6.5250  -17.2570 N.am  176  ASN176     -0.0877
     62  N         18.6310    5.3230  -21.2510 N.3   179  HIS179     -0.1241
     63  CA        17.9140    5.0680  -22.5000 C.3   179  HIS179      0.1621
     64  C         17.9240    6.2670  -23.4340 C.2   179  HIS179      0.2264
     65  O         18.0010    6.1200  -24.6470 O.2   179  HIS179     -0.2867
     66  CB        16.4390    4.7220  -22.2390 C.3   179  HIS179      0.0745
     67  CG        16.2150    3.3860  -21.6110 C.ar  179  HIS179      0.0817
     68  ND1       16.6450    3.0830  -20.3370 N.ar  179  HIS179     -0.2268
     69  CD2       15.5520    2.2930  -22.0550 C.ar  179  HIS179      0.1154
     70  CE1       16.2810    1.8500  -20.0340 C.ar  179  HIS179      0.1986
     71  NE2       15.6080    1.3520  -21.0540 N.ar  179  HIS179     -0.2212
     72  N          6.1730    8.1870  -21.5960 N.3   247  ARG247     -0.1245
     73  CA         7.2070    8.0590  -20.5730 C.3   247  ARG247      0.1563
     74  C          6.9030    8.9160  -19.3380 C.2   247  ARG247      0.2260
     75  O          6.9610    8.4240  -18.2050 O.2   247  ARG247     -0.2867
     76  CB         8.5930    8.3530  -21.1660 C.3   247  ARG247      0.0307
     77  CG         9.7660    7.9490  -20.2800 C.3   247  ARG247      0.0489
     78  CD         9.7650    6.4620  -19.9980 C.3   247  ARG247      0.2205
     79  NE         9.4780    5.7000  -21.2080 N.pl3 247  ARG247     -0.0865
     80  CZ        10.3810    5.3350  -22.1130 C.cat 247  ARG247      0.5346
     81  NH1       11.6660    5.6450  -21.9640 N.pl3 247  ARG247      0.1354
     82  NH2        9.9910    4.6520  -23.1780 N.pl3 247  ARG247      0.1354
     83  N          4.2190    7.8500  -16.7010 N.3   250  ARG250     -0.1245
     84  CA         4.5830    6.9650  -15.5940 C.3   250  ARG250      0.1563
     85  C          4.8660    7.6890  -14.2890 C.2   250  ARG250      0.2260
     86  O          4.7050    7.1130  -13.2310 O.2   250  ARG250     -0.2867
     87  CB         5.7790    6.0900  -15.9620 C.3   250  ARG250      0.0307
     88  CG         5.5670    5.2510  -17.2150 C.3   250  ARG250      0.0489
     89  CD         6.4890    4.0720  -17.2010 C.3   250  ARG250      0.2205
     90  NE         6.9740    3.7240  -18.5330 N.pl3 250  ARG250     -0.0865
     91  CZ         7.9740    2.8730  -18.7370 C.cat 250  ARG250      0.5346
     92  NH1        8.5590    2.3120  -17.6840 N.pl3 250  ARG250      0.1354
     93  NH2        8.3840    2.5820  -19.9690 N.pl3 250  ARG250      0.1354
@<TRIPOS>BOND
     1     8     6   am
     2     5     6    1
     3     5     2    1
     4     6     7    2
     5     3     2    1
     6     3     4    2
     7     1     2    1
     8    65    64    2
     9    64    63    1
    10    82    80    1
    11     9    10    1
    12    63    66    1
    13    63    62    1
    14    66    67    1
    15    80    81    1
    16    80    79    2
    17    69    67   ar
    18    69    71   ar
    19    11    10    1
    20    11    12    2
    21    10    13    1
    22    67    68   ar
    23    13    14    1
    24    72    73    1
    25    79    78    1
    26    76    73    1
    27    76    77    1
    28    71    70   ar
    29    73    74    1
    30    14    15    1
    31    68    70   ar
    32    77    78    1
    33    57    56    2
    34    26    24   am
    35    93    91    1
    36    18    19    1
    37    60    59    2
    38    74    75    2
    39    15    16    2
    40    15    17   am
    41    24    25    2
    42    24    23    1
    43    22    19    1
    44    22    23    1
    45    56    55    1
    46    20    19    1
    47    20    21    2
    48    91    90    2
    49    91    92    1
    50    90    89    1
    51    55    58    1
    52    55    54    1
    53    59    58    1
    54    59    61   am
    55    50    49    2
    56    88    89    1
    57    88    87    1
    58    54    49   am
    59    49    48    1
    60    83    84    1
    61    35    33   am
    62    53    51    1
    63    46    44   ar
    64    46    45   ar
    65    87    84    1
    66    44    42   ar
    67    34    33    2
    68    48    51    1
    69    48    47    1
    70    45    43   ar
    71    33    32    1
    72    84    85    1
    73    51    52    1
    74    30    29    2
    75    39    38    2
    76    42    41   ar
    77    43    41   ar
    78    32    31    1
    79    85    86    2
    80    28    29    1
    81    28    31    1
    82    28    27    1
    83    41    40    1
    84    38    37    1
    85    37    40    1
    86    37    36    1
