@<TRIPOS>MOLECULE
tmp/3bliA00.pdb
 195 184 0 0 0
SMALL
GASTEIGER

@<TRIPOS>ATOM
      1  N         28.0540  -22.2090    5.0260 N.3    10  ARG10      -0.1231
      2  CA        29.0940  -21.3170    5.5210 C.3    10  ARG10       0.1694
      3  C         28.9840  -21.1210    7.0260 C.2    10  ARG10       0.2592
      4  O         29.7740  -21.6790    7.7860 O.2    10  ARG10      -0.2718
      5  CB        29.0130  -19.9590    4.8210 C.3    10  ARG10       0.0321
      6  CG        30.1020  -18.9850    5.2340 C.3    10  ARG10       0.0489
      7  CD        29.4870  -17.6890    5.6840 C.3    10  ARG10       0.2205
      8  NE        29.5950  -17.5140    7.1250 N.pl3  10  ARG10      -0.0865
      9  CZ        28.7410  -16.8180    7.8690 C.cat  10  ARG10       0.5346
     10  NH1       27.6900  -16.2210    7.3160 N.pl3  10  ARG10       0.1354
     11  NH2       28.9450  -16.7250    9.1780 N.pl3  10  ARG10       0.1354
     12  N         28.0090  -20.3170    7.4490 N.am   11  ASP11      -0.1974
     13  CA        27.7850  -20.0430    8.8710 C.3    11  ASP11       0.1709
     14  C         27.5930  -21.3760    9.5830 C.2    11  ASP11       0.2293
     15  O         28.0420  -21.5680   10.7160 O.2    11  ASP11      -0.2864
     16  CB        26.5270  -19.1910    9.0590 C.3    11  ASP11       0.1436
     17  CG        26.5480  -18.3820   10.3470 C.2    11  ASP11       0.3671
     18  OD1       27.0360  -18.8870   11.3790 O.co2  11  ASP11      -0.2456
     19  OD2       26.0560  -17.2350   10.3270 O.co2  11  ASP11      -0.2456
     20  N         28.8980  -24.1930    8.7010 N.3    13  GLU13      -0.1231
     21  CA        30.1560  -24.9380    8.7050 C.3    13  GLU13       0.1699
     22  C         31.0620  -24.5450    9.8700 C.2    13  GLU13       0.2592
     23  O         31.8670  -25.3530   10.3470 O.2    13  GLU13      -0.2718
     24  CB        30.8880  -24.7230    7.3750 C.3    13  GLU13       0.0402
     25  CG        32.3330  -25.1910    7.3660 C.3    13  GLU13       0.1161
     26  CD        32.6910  -25.9810    6.1210 C.2    13  GLU13       0.3649
     27  OE1       32.3640  -25.5220    5.0120 O.co2  13  GLU13      -0.2457
     28  OE2       33.3090  -27.0570    6.2510 O.co2  13  GLU13      -0.2457
     29  N         30.9180  -23.3020   10.3210 N.am   14  GLN14      -0.1979
     30  CA        31.7070  -22.7610   11.4240 C.3    14  GLN14       0.1601
     31  C         31.4920  -23.5430   12.7170 C.2    14  GLN14       0.2287
     32  O         32.3240  -23.5050   13.6250 O.2    14  GLN14      -0.2864
     33  CB        31.3540  -21.2830   11.6260 C.3    14  GLN14       0.0394
     34  CG        32.3010  -20.3380   10.8810 C.3    14  GLN14       0.0908
     35  CD        31.6650  -19.0100   10.4790 C.2    14  GLN14       0.2608
     36  OE1       32.0220  -18.4340    9.4550 O.2    14  GLN14      -0.2717
     37  NE2       30.7190  -18.5260   11.2810 N.am   14  GLN14      -0.0878
     38  N         33.4100  -18.7840    2.9110 N.3    45  SER45      -0.1202
     39  CA        34.0830  -17.5630    3.3260 C.3    45  SER45       0.2020
     40  C         35.3660  -17.4970    2.5080 C.2    45  SER45       0.2619
     41  O         36.0990  -18.4820    2.4110 O.2    45  SER45      -0.2717
     42  CB        34.4250  -17.6100    4.8190 C.3    45  SER45       0.2103
     43  OG        33.2620  -17.4870    5.6200 O.3    45  SER45      -0.2182
     44  N         35.6320  -16.3420    1.9140 N.am   46  ALA46      -0.1965
     45  CA        36.8250  -16.1800    1.0970 C.3    46  ALA46       0.1728
     46  C         38.0950  -16.2070    1.9370 C.2    46  ALA46       0.2616
     47  O         38.0760  -15.8890    3.1250 O.2    46  ALA46      -0.2715
     48  CB        36.7420  -14.8830    0.3090 C.3    46  ALA46       0.0334
     49  N         39.1920  -16.6140    1.3090 N.am   47  ARG47      -0.1963
     50  CA        40.4970  -16.6720    1.9620 C.3    47  ARG47       0.1729
     51  C         40.6000  -17.7050    3.0820 C.2    47  ARG47       0.2616
     52  O         41.5990  -17.7500    3.8010 O.2    47  ARG47      -0.2715
     53  CB        40.8590  -15.2960    2.5200 C.3    47  ARG47       0.0348
     54  CG        40.5660  -14.1380    1.5800 C.3    47  ARG47       0.0492
     55  CD        41.0110  -12.8510    2.2250 C.3    47  ARG47       0.2205
     56  NE        42.4330  -12.9140    2.5390 N.pl3  47  ARG47      -0.0865
     57  CZ        42.9830  -12.4000    3.6300 C.cat  47  ARG47       0.5346
     58  NH1       42.2320  -11.7750    4.5260 N.pl3  47  ARG47       0.1354
     59  NH2       44.2870  -12.5270    3.8280 N.pl3  47  ARG47       0.1354
     60  N         39.5730  -18.5290    3.2440 N.am   48  VAL48      -0.1963
     61  CA        39.6110  -19.5480    4.2840 C.3    48  VAL48       0.1727
     62  C         40.7750  -20.4930    4.0300 C.2    48  VAL48       0.2616
     63  O         41.5440  -20.7910    4.9430 O.2    48  VAL48      -0.2715
     64  CB        38.3160  -20.3600    4.3190 C.3    48  VAL48       0.0290
     65  CG1       37.2410  -19.5980    5.0810 C.3    48  VAL48       0.0023
     66  CG2       37.8600  -20.6340    2.9050 C.3    48  VAL48       0.0023
     67  N         40.9040  -20.9560    2.7880 N.am   49  SER49      -0.1950
     68  CA        41.9830  -21.8660    2.4110 C.3    49  SER49       0.1924
     69  C         41.8160  -22.3900    0.9980 C.2    49  SER49       0.2314
     70  O         40.8020  -22.1530    0.3460 O.2    49  SER49      -0.2863
     71  CB        42.0190  -23.0720    3.3440 C.3    49  SER49       0.2116
     72  OG        40.9500  -23.9550    3.0440 O.3    49  SER49      -0.2180
     73  N         38.9410  -25.1090   -0.3800 N.3    52  GLU52      -0.1245
     74  CA        37.6680  -24.4350   -0.2000 C.3    52  GLU52       0.1567
     75  C         37.4950  -23.5870   -1.4550 C.2    52  GLU52       0.2260
     76  O         36.3710  -23.2930   -1.8840 O.2    52  GLU52      -0.2867
     77  CB        37.6950  -23.5250    1.0220 C.3    52  GLU52       0.0388
     78  CG        36.4070  -22.7360    1.2010 C.3    52  GLU52       0.1160
     79  CD        35.3500  -23.4870    1.9890 C.2    52  GLU52       0.3649
     80  OE1       35.0360  -24.6400    1.6330 O.co2  52  GLU52      -0.2457
     81  OE2       34.8290  -22.9110    2.9680 O.co2  52  GLU52      -0.2457
     82  N         31.0150  -15.1530    1.5690 N.3    75  LEU75      -0.1245
     83  CA        31.2760  -14.2310    2.6620 C.3    75  LEU75       0.1561
     84  C         32.6850  -13.6890    2.4730 C.2    75  LEU75       0.2260
     85  O         33.6490  -14.4550    2.4000 O.2    75  LEU75      -0.2867
     86  CB        31.1940  -14.9370    4.0140 C.3    75  LEU75       0.0270
     87  CG        31.3920  -14.0210    5.2330 C.3    75  LEU75       0.0019
     88  CD1       30.1070  -13.2570    5.4850 C.3    75  LEU75       0.0001
     89  CD2       31.7650  -14.8260    6.4660 C.3    75  LEU75       0.0001
     90  N         35.5760  -10.1460    3.2390 N.3    77  PHE77      -0.1227
     91  CA        35.9730   -9.1840    4.2500 C.3    77  PHE77       0.1736
     92  C         36.5420   -7.9060    3.6610 C.2    77  PHE77       0.2595
     93  O         36.8400   -7.8400    2.4720 O.2    77  PHE77      -0.2718
     94  CB        36.9960   -9.8340    5.1720 C.3    77  PHE77       0.0547
     95  CG        36.6800  -11.2630    5.5060 C.ar   77  PHE77      -0.0202
     96  CD1       37.1620  -12.3010    4.7040 C.ar   77  PHE77      -0.0042
     97  CD2       35.8780  -11.5760    6.6060 C.ar   77  PHE77      -0.0042
     98  CE1       36.8520  -13.6300    4.9920 C.ar   77  PHE77      -0.0003
     99  CE2       35.5610  -12.9050    6.9040 C.ar   77  PHE77      -0.0003
    100  CZ        36.0480  -13.9340    6.0970 C.ar   77  PHE77      -0.0000
    101  N         36.6820   -6.8900    4.5070 N.am   78  VAL78      -0.1966
    102  CA        37.2260   -5.5980    4.0950 C.3    78  VAL78       0.1727
    103  C         38.7520   -5.6540    4.2090 C.2    78  VAL78       0.2616
    104  O         39.3310   -5.1170    5.1420 O.2    78  VAL78      -0.2715
    105  CB        36.6850   -4.4700    4.9960 C.3    78  VAL78       0.0290
    106  CG1       37.1510   -3.1190    4.4810 C.3    78  VAL78       0.0023
    107  CG2       35.1630   -4.5310    5.0490 C.3    78  VAL78       0.0023
    108  N         39.3930   -6.3200    3.2550 N.am   79  ASP79      -0.1971
    109  CA        40.8430   -6.4760    3.2580 C.3    79  ASP79       0.1709
    110  C         41.5490   -5.8880    2.0390 C.2    79  ASP79       0.2293
    111  O         42.6630   -6.2830    1.7120 O.2    79  ASP79      -0.2864
    112  CB        41.2020   -7.9580    3.3670 C.3    79  ASP79       0.1436
    113  CG        40.3470   -8.8350    2.4700 C.2    79  ASP79       0.3671
    114  OD1       39.9320   -8.3730    1.3830 O.co2  79  ASP79      -0.2456
    115  OD2       40.1030   -9.9980    2.8570 O.co2  79  ASP79      -0.2456
    116  N         42.3870   -8.6350   -1.4330 N.3    82  LYS82      -0.1245
    117  CA        42.4630  -10.0670   -1.1640 C.3    82  LYS82       0.1561
    118  C         41.1560  -10.8650   -1.2920 C.2    82  LYS82       0.2260
    119  O         41.1270  -11.9130   -1.9400 O.2    82  LYS82      -0.2867
    120  CB        43.1010  -10.2790    0.2060 C.3    82  LYS82       0.0271
    121  CG        44.4990   -9.6960    0.2720 C.3    82  LYS82       0.0035
    122  CD        45.1340   -9.8180    1.6450 C.3    82  LYS82       0.0206
    123  CE        44.1000   -9.5430    2.7360 C.3    82  LYS82       0.1093
    124  NZ        44.4370  -10.2000    4.0310 N.3    82  LYS82      -0.1314
    125  N         31.4870   -8.3220    4.8840 N.3    98  LEU98      -0.1245
    126  CA        31.3800   -8.2640    6.3320 C.3    98  LEU98       0.1561
    127  C         31.8990   -6.9130    6.8430 C.2    98  LEU98       0.2260
    128  O         33.1030   -6.6650    6.8090 O.2    98  LEU98      -0.2867
    129  CB        32.2210   -9.3800    6.9530 C.3    98  LEU98       0.0270
    130  CG        31.6870  -10.1890    8.1420 C.3    98  LEU98       0.0019
    131  CD1       32.8160  -10.3610    9.1430 C.3    98  LEU98       0.0001
    132  CD2       30.4890   -9.5090    8.7910 C.3    98  LEU98       0.0001
    133  N         38.4130   -3.8360   17.4670 N.3   109  GLN109     -0.1231
    134  CA        39.0490   -4.7760   16.5440 C.3   109  GLN109      0.1698
    135  C         39.9210   -4.0720   15.5170 C.2   109  GLN109      0.2592
    136  O         41.0430   -4.4930   15.2340 O.2   109  GLN109     -0.2718
    137  CB        38.0030   -5.5920   15.7840 C.3   109  GLN109      0.0381
    138  CG        37.2990   -6.6580   16.5820 C.3   109  GLN109      0.0905
    139  CD        36.4980   -7.5850   15.6900 C.2   109  GLN109      0.2608
    140  OE1       37.0560   -8.2710   14.8320 O.2   109  GLN109     -0.2717
    141  NE2       35.1840   -7.6050   15.8810 N.am  109  GLN109     -0.0878
    142  N         39.3890   -2.9990   14.9520 N.am  110  LEU110     -0.1980
    143  CA        40.1070   -2.2560   13.9370 C.3   110  LEU110      0.1596
    144  C         40.8170   -1.0390   14.5030 C.2   110  LEU110      0.2287
    145  O         41.9350   -0.7180   14.1000 O.2   110  LEU110     -0.2864
    146  CB        39.1360   -1.8200   12.8380 C.3   110  LEU110      0.0297
    147  CG        38.2660   -2.9330   12.2470 C.3   110  LEU110      0.0022
    148  CD1       37.4000   -2.3660   11.1510 C.3   110  LEU110      0.0001
    149  CD2       39.1460   -4.0440   11.7060 C.3   110  LEU110      0.0001
    150  N         27.6900   -6.5230   10.6930 N.3   140  GLU140     -0.1245
    151  CA        28.0050   -7.3780   11.8270 C.3   140  GLU140      0.1567
    152  C         27.7880   -6.6850   13.1680 C.2   140  GLU140      0.2260
    153  O         28.1510   -5.5230   13.3420 O.2   140  GLU140     -0.2867
    154  CB        29.4510   -7.8760   11.7180 C.3   140  GLU140      0.0388
    155  CG        29.8530   -8.8380   12.8150 C.3   140  GLU140      0.1160
    156  CD        31.2720   -9.3380   12.6630 C.2   140  GLU140      0.3649
    157  OE1       32.1850   -8.5030   12.5250 O.co2 140  GLU140     -0.2457
    158  OE2       31.4790  -10.5690   12.6870 O.co2 140  GLU140     -0.2457
    159  N         24.0160  -10.9530   15.1670 N.3   173  THR173     -0.1218
    160  CA        25.2720  -11.6810   15.3230 C.3   173  THR173      0.1862
    161  C         25.4300  -12.5040   16.5980 C.2   173  THR173      0.2287
    162  O         25.7590  -13.6930   16.5390 O.2   173  THR173     -0.2866
    163  CB        26.4810  -10.7150   15.2220 C.3   173  THR173      0.1770
    164  OG1       26.4440  -10.0320   13.9670 O.3   173  THR173     -0.2211
    165  CG2       27.7730  -11.4740   15.3210 C.3   173  THR173      0.0375
    166  N         20.0030  -15.3250   15.1300 N.3   203  HIS203     -0.1241
    167  CA        20.6890  -16.4480   15.7430 C.3   203  HIS203      0.1621
    168  C         19.7710  -16.9000   16.8680 C.2   203  HIS203      0.2264
    169  O         19.0150  -16.0930   17.4140 O.2   203  HIS203     -0.2867
    170  CB        22.0700  -16.0230   16.2290 C.3   203  HIS203      0.0745
    171  CG        23.1140  -16.1190   15.1610 C.ar  203  HIS203      0.0817
    172  ND1       23.7370  -17.3070   14.8410 N.ar  203  HIS203     -0.2268
    173  CD2       23.5420  -15.2150   14.2480 C.ar  203  HIS203      0.1154
    174  CE1       24.4970  -17.1340   13.7760 C.ar  203  HIS203      0.1986
    175  NE2       24.3950  -15.8730   13.3950 N.ar  203  HIS203     -0.2212
    176  N         27.3610  -21.5750   14.4710 N.3   233  GLU233     -0.1231
    177  CA        28.3740  -21.5720   15.5210 C.3   233  GLU233      0.1699
    178  C         27.9270  -21.9020   16.9580 C.2   233  GLU233      0.2592
    179  O         28.3750  -22.8950   17.5330 O.2   233  GLU233     -0.2718
    180  CB        29.1020  -20.2300   15.5200 C.3   233  GLU233      0.0402
    181  CG        30.4760  -20.3080   14.8860 C.3   233  GLU233      0.1161
    182  CD        31.1650  -18.9710   14.7950 C.2   233  GLU233      0.3649
    183  OE1       30.7020  -18.0750   14.0520 O.co2 233  GLU233     -0.2457
    184  OE2       32.1780  -18.8160   15.4950 O.co2 233  GLU233     -0.2457
    185  N         27.0690  -21.0790   17.5560 N.am  234  ARG234     -0.1980
    186  CA        26.6280  -21.3420   18.9280 C.3   234  ARG234      0.1597
    187  C         25.3390  -22.1880   18.9860 C.2   234  ARG234      0.2287
    188  O         25.3920  -23.4280   19.0050 O.2   234  ARG234     -0.2864
    189  CB        26.4430  -20.0120   19.6830 C.3   234  ARG234      0.0334
    190  CG        27.7160  -19.4120   20.2280 C.3   234  ARG234      0.0492
    191  CD        27.5160  -17.9530   20.5230 C.3   234  ARG234      0.2205
    192  NE        27.5110  -17.2040   19.2780 N.pl3 234  ARG234     -0.0865
    193  CZ        26.5560  -16.3640   18.9100 C.cat 234  ARG234      0.5346
    194  NH1       25.5200  -16.1560   19.6990 N.pl3 234  ARG234      0.1354
    195  NH2       26.6260  -15.7550   17.7360 N.pl3 234  ARG234      0.1354
@<TRIPOS>BOND
     1   119   118    2
     2    76    75    2
     3    75    74    1
     4   116   117    1
     5   118   117    1
     6   117   120    1
     7    73    74    1
     8    74    77    1
     9   120   121    1
    10   121   122    1
    11    48    45    1
    12    70    69    2
    13    69    68    1
    14    77    78    1
    15    45    44    1
    16    45    46    1
    17    78    79    1
    18    49    46   am
    19    49    50    1
    20   114   113   ar
    21    82    83    1
    22    54    55    1
    23    54    53    1
    24    80    79   ar
    25   122   123    1
    26   111   110    2
    27    44    40   am
    28    46    47    2
    29    50    53    1
    30    50    51    1
    31    79    81   ar
    32   110   109    1
    33    55    56    1
    34    85    84    2
    35    68    67    1
    36    68    71    1
    37    41    40    2
    38   113   115   ar
    39   113   112    1
    40    93    92    2
    41    84    83    1
    42    40    39    1
    43    56    57    2
    44    83    86    1
    45   123   124    1
    46    67    62   am
    47    66    64    1
    48    38    39    1
    49    72    71    1
    50    51    60   am
    51    51    52    2
    52    90    91    1
    53    60    61    1
    54   108   109    1
    55   108   103   am
    56   109   112    1
    57    39    42    1
    58    57    59    1
    59    57    58    1
    60    92    91    1
    61    92   101   am
    62    86    87    1
    63    62    61    1
    64    62    63    2
    65   102   103    1
    66   102   101    1
    67   102   105    1
    68   103   104    2
    69    91    94    1
    70    61    64    1
    71    64    65    1
    72   106   105    1
    73    96    98   ar
    74    96    95   ar
    75    42    43    1
    76     5     6    1
    77     5     2    1
    78   125   126    1
    79    98   100   ar
    80   105   107    1
    81    27    26   ar
    82     1     2    1
    83    94    95    1
    84    87    88    1
    85    87    89    1
    86     6     7    1
    87    95    97   ar
    88     2     3    1
    89     7     8    1
    90   100    99   ar
    91    26    28   ar
    92    26    25    1
    93   126   127    1
    94   126   129    1
    95    97    99   ar
    96   128   127    2
    97   129   130    1
    98     3    12   am
    99     3     4    2
   100     8     9    2
   101    10     9    1
   102    25    24    1
   103    24    21    1
   104    12    13    1
   105     9    11    1
   106   130   132    1
   107   130   131    1
   108    20    21    1
   109    21    22    1
   110    13    16    1
   111    13    14    1
   112    16    17    1
   113    36    35    2
   114    14    15    2
   115    22    29   am
   116    22    23    2
   117    29    30    1
   118    19    17   ar
   119    17    18   ar
   120    35    34    1
   121    35    37   am
   122   150   151    1
   123    34    33    1
   124   148   147    1
   125    30    33    1
   126    30    31    1
   127   149   147    1
   128   154   151    1
   129   154   155    1
   130   151   152    1
   131   147   146    1
   132   157   156   ar
   133   156   158   ar
   134   156   155    1
   135    31    32    2
   136   146   143    1
   137   152   153    2
   138   175   174   ar
   139   175   173   ar
   140   174   172   ar
   141   143   144    1
   142   143   142    1
   143   164   163    1
   144   183   182   ar
   145   145   144    2
   146   173   171   ar
   147   176   177    1
   148   182   181    1
   149   182   184   ar
   150   140   139    2
   151   172   171   ar
   152   181   180    1
   153   142   135   am
   154   166   167    1
   155   171   170    1
   156   159   160    1
   157   163   165    1
   158   163   160    1
   159   136   135    2
   160   160   161    1
   161   135   134    1
   162   180   177    1
   163   177   178    1
   164   139   141   am
   165   139   138    1
   166   167   170    1
   167   167   168    1
   168   137   134    1
   169   137   138    1
   170   162   161    2
   171   134   133    1
   172   168   169    2
   173   178   179    2
   174   178   185   am
   175   185   186    1
   176   195   193    1
   177   193   192    2
   178   193   194    1
   179   186   187    1
   180   186   189    1
   181   187   188    2
   182   192   191    1
   183   189   190    1
   184   190   191    1
