@<TRIPOS>MOLECULE
tmp/3bllA00.pdb
 151 145 0 0 0
SMALL
GASTEIGER

@<TRIPOS>ATOM
      1  N          9.7930   11.6460   22.1970 N.3    92  ASP92      -0.1225
      2  CA        10.6760   12.6340   22.7890 C.3    92  ASP92       0.1805
      3  C          9.9300   13.3740   23.9060 C.2    92  ASP92       0.2598
      4  O          8.7280   13.1950   24.1390 O.2    92  ASP92      -0.2718
      5  CB        11.2430   13.5250   21.6980 C.3    92  ASP92       0.1424
      6  CG        10.2170   14.3430   20.9780 C.2    92  ASP92       0.3668
      7  OD1        9.0960   14.4740   21.4970 O.co2  92  ASP92      -0.2456
      8  OD2       10.5690   14.8640   19.9080 O.co2  92  ASP92      -0.2456
      9  N         10.7200   14.1770   24.6230 N.am   93  SER93      -0.1938
     10  CA        10.1790   14.7580   25.8580 C.3    93  SER93       0.2055
     11  C          9.5480   16.1130   25.5810 C.2    93  SER93       0.2644
     12  O          8.6620   16.5370   26.3230 O.2    93  SER93      -0.2714
     13  CB        11.2350   14.8560   26.9520 C.3    93  SER93       0.2130
     14  OG        12.4260   15.4600   26.5160 O.3    93  SER93      -0.2179
     15  N         10.0350   16.7630   24.5270 N.am   94  GLY94      -0.1939
     16  CA         9.6130   18.0890   24.1550 C.3    94  GLY94       0.2014
     17  C         10.6650   19.1550   24.4040 C.2    94  GLY94       0.2639
     18  O         10.4560   20.2920   23.9910 O.2    94  GLY94      -0.2714
     19  N         11.7700   18.8130   25.0620 N.am   95  GLY95      -0.1939
     20  CA        12.8130   19.7870   25.3450 C.3    95  GLY95       0.2014
     21  C         13.3610   20.4950   24.1340 C.2    95  GLY95       0.2639
     22  O         13.7110   21.6780   24.1960 O.2    95  GLY95      -0.2714
     23  N         13.4570   19.8620   22.9670 N.am   96  PHE96      -0.1959
     24  CA        13.8280   20.5800   21.7490 C.3    96  PHE96       0.1771
     25  C         12.7480   21.4830   21.1760 C.2    96  PHE96       0.2616
     26  O         13.0100   22.6650   20.8810 O.2    96  PHE96      -0.2715
     27  CB        14.2840   19.5260   20.7310 C.3    96  PHE96       0.0574
     28  CG        14.9480   20.0660   19.4800 C.ar   96  PHE96      -0.0200
     29  CD1       16.3240   20.1900   19.3930 C.ar   96  PHE96      -0.0042
     30  CD2       14.1620   20.4370   18.3950 C.ar   96  PHE96      -0.0042
     31  CE1       16.9210   20.6790   18.2410 C.ar   96  PHE96      -0.0003
     32  CE2       14.7480   20.9320   17.2520 C.ar   96  PHE96      -0.0003
     33  CZ        16.1240   21.0540   17.1790 C.ar   96  PHE96      -0.0000
     34  N         11.5240   21.0200   20.9270 N.am   97  GLN97      -0.2030
     35  CA        10.5600   21.8310   20.1800 C.3    97  GLN97       0.1287
     36  C         10.0830   23.0370   20.9910 C.3    97  GLN97       0.2036
     37  O          9.7850   24.0340   20.3190 O.3    97  GLN97      -0.2185
     38  CB         9.4110   20.9880   19.6400 C.3    97  GLN97       0.0340
     39  CG         9.8160   19.9230   18.6330 C.3    97  GLN97       0.0904
     40  CD        10.5380   18.7430   19.2500 C.2    97  GLN97       0.2608
     41  OE1       10.5000   18.4400   20.4560 O.2    97  GLN97      -0.2717
     42  NE2       11.2480   18.0050   18.3900 N.am   97  GLN97      -0.0878
     43  N         14.4590   17.5230   29.4400 N.3   131  ASP131     -0.1239
     44  CA        15.7170   18.2570   29.5730 C.3   131  ASP131      0.1674
     45  C         15.5650   19.7200   29.1820 C.2   131  ASP131      0.2266
     46  O         14.5690   20.1450   28.5980 O.2   131  ASP131     -0.2867
     47  CB        16.8550   17.6220   28.7440 C.3   131  ASP131      0.1410
     48  CG        16.5530   17.5010   27.2710 C.2   131  ASP131      0.3668
     49  OD1       15.3720   17.5860   26.8720 O.co2 131  ASP131     -0.2456
     50  OD2       17.5080   17.3060   26.4770 O.co2 131  ASP131     -0.2456
     51  N         17.3450   22.2580   26.7000 N.3   133  VAL133     -0.1231
     52  CA        18.3730   21.9800   25.6810 C.3   133  VAL133      0.1692
     53  C         19.1900   23.2410   25.4850 C.2   133  VAL133      0.2593
     54  O         18.8240   24.3850   25.3340 O.2   133  VAL133     -0.2718
     55  CB        17.8400   21.4390   24.3490 C.3   133  VAL133      0.0266
     56  CG1       18.9820   20.9440   23.4590 C.3   133  VAL133      0.0020
     57  CG2       16.8920   20.2710   24.5960 C.3   133  VAL133      0.0020
     58  N         20.4690   23.0100   25.4770 N.am  134  THR134     -0.1940
     59  CA        21.4130   24.1040   25.5150 C.3   134  THR134      0.2013
     60  C         21.6310   24.6160   24.1140 C.2   134  THR134      0.2484
     61  O         22.0320   23.8540   23.2400 O.2   134  THR134     -0.2729
     62  CB        22.7050   23.5300   26.1640 C.3   134  THR134      0.1807
     63  OG1       22.4300   22.8710   27.4080 O.3   134  THR134     -0.2208
     64  CG2       23.6650   24.6840   26.4080 C.3   134  THR134      0.0379
     65  N         21.4070   25.8860   23.8200 N.am  135  PRO135     -0.2715
     66  CA        21.7700   26.3870   22.4990 C.3   135  PRO135      0.1536
     67  C         23.2510   26.1700   22.1710 C.2   135  PRO135      0.2598
     68  O         24.0970   26.0850   23.0820 O.2   135  PRO135     -0.2715
     69  CB        21.5230   27.8970   22.6670 C.3   135  PRO135      0.0310
     70  CG        20.5270   28.0250   23.7810 C.3   135  PRO135      0.0237
     71  CD        20.8180   26.8910   24.7170 C.3   135  PRO135      0.0939
     72  N         23.5640   26.1210   20.8850 N.am  136  TYR136     -0.1974
     73  CA        24.9280   26.0730   20.4120 C.3   136  TYR136      0.1639
     74  C         25.2580   27.3390   19.6110 C.2   136  TYR136      0.2290
     75  O         24.5530   27.6940   18.6590 O.2   136  TYR136     -0.2864
     76  CB        25.2110   24.8350   19.5300 C.3   136  TYR136      0.0560
     77  CG        26.6160   24.8460   18.9770 C.ar  136  TYR136     -0.0198
     78  CD1       27.6480   24.3860   19.7890 C.ar  136  TYR136     -0.0009
     79  CD2       26.9400   25.2960   17.6930 C.ar  136  TYR136     -0.0009
     80  CE1       28.9620   24.3790   19.3150 C.ar  136  TYR136      0.0417
     81  CE2       28.2410   25.3080   17.2300 C.ar  136  TYR136      0.0417
     82  CZ        29.2420   24.8440   18.0620 C.ar  136  TYR136      0.1957
     83  OH        30.5540   24.8290   17.6180 O.3   136  TYR136     -0.2866
     84  N         19.0460   11.8370   29.2120 N.3   176  ILE176     -0.1245
     85  CA        19.6920   12.6310   28.1700 C.3   176  ILE176      0.1561
     86  C         20.9080   13.3880   28.7390 C.2   176  ILE176      0.2260
     87  O         20.7850   14.2100   29.6350 O.2   176  ILE176     -0.2867
     88  CB        18.7200   13.5960   27.4680 C.3   176  ILE176      0.0252
     89  CG1       17.4720   12.9110   26.9240 C.3   176  ILE176      0.0019
     90  CG2       19.4670   14.3430   26.3560 C.3   176  ILE176      0.0019
     91  CD1       16.4170   13.8850   26.4670 C.3   176  ILE176      0.0001
     92  N         23.7350   16.1410   28.4430 N.3   178  GLN178     -0.1245
     93  CA        23.9480   17.4820   28.1050 C.3   178  GLN178      0.1566
     94  C         25.4010   17.8350   28.4260 C.2   178  GLN178      0.2260
     95  O         26.2030   16.9630   28.6990 O.2   178  GLN178     -0.2867
     96  CB        22.8430   18.3390   28.7180 C.3   178  GLN178      0.0367
     97  CG        21.4660   18.0780   28.1400 C.3   178  GLN178      0.0905
     98  CD        21.2230   18.3710   26.6860 C.2   178  GLN178      0.2608
     99  OE1       22.1070   18.9260   26.0340 O.2   178  GLN178     -0.2717
    100  NE2       20.0980   17.9730   26.0990 N.am  178  GLN178     -0.0878
    101  N         22.3160   14.2620   24.0410 N.3   204  GLY204     -0.1210
    102  CA        21.5880   15.4270   23.5650 C.3   204  GLY204      0.1956
    103  C         22.4980   16.5820   23.2270 C.2   204  GLY204      0.2612
    104  O         23.6950   16.5770   23.4900 O.2   204  GLY204     -0.2717
    105  N         21.8720   17.6180   22.6710 N.am  205  GLY205     -0.1942
    106  CA        22.5740   18.8560   22.4480 C.3   205  GLY205      0.2014
    107  C         23.4960   18.9360   21.2640 C.2   205  GLY205      0.2639
    108  O         24.1920   19.9540   21.1270 O.2   205  GLY205     -0.2714
    109  N         23.5610   17.9220   20.4060 N.am  206  LEU206     -0.1963
    110  CA        24.4750   17.9120   19.2560 C.3   206  LEU206      0.1728
    111  C         23.6090   18.0080   18.0000 C.2   206  LEU206      0.2616
    112  O         22.3830   17.9460   18.1940 O.2   206  LEU206     -0.2715
    113  CB        25.3590   16.6840   19.2800 C.3   206  LEU206      0.0311
    114  CG        26.3010   16.5400   20.4530 C.3   206  LEU206      0.0022
    115  CD1       27.1970   15.3200   20.2770 C.3   206  LEU206      0.0001
    116  CD2       27.1780   17.7680   20.6200 C.3   206  LEU206      0.0001
    117  N         24.1550   18.1970   16.8200 N.am  207  SER207     -0.1950
    118  CA        23.3380   18.4290   15.6170 C.3   207  SER207      0.1924
    119  C         22.7070   19.8190   15.6350 C.2   207  SER207      0.2314
    120  O         23.3800   20.7500   16.1180 O.2   207  SER207     -0.2863
    121  CB        22.2190   17.4070   15.4660 C.3   207  SER207      0.2116
    122  OG        21.4520   17.9040   14.4330 O.3   207  SER207     -0.2180
    123  N         27.1010   23.3380   14.1790 N.3   208  GLU208     -0.1245
    124  CA        28.3630   23.0120   14.8710 C.3   208  GLU208      0.1567
    125  C         29.3990   22.4060   13.9180 C.2   208  GLU208      0.2260
    126  O         30.5400   22.8940   13.9390 O.2   208  GLU208     -0.2867
    127  CB        28.0600   22.1370   16.0790 C.3   208  GLU208      0.0388
    128  CG        28.4440   20.6660   16.0760 C.3   208  GLU208      0.1160
    129  CD        27.6230   19.8410   17.0460 C.2   208  GLU208      0.3649
    130  OE1       27.8760   20.0900   18.2430 O.co2 208  GLU208     -0.2457
    131  OE2       26.7840   18.9930   16.6390 O.co2 208  GLU208     -0.2457
    132  N         20.3890   11.9460   19.4660 N.3   233  MET233     -0.1230
    133  CA        19.1780   12.6320   19.0670 C.3   233  MET233      0.1702
    134  C         19.4090   13.6320   17.9410 C.2   233  MET233      0.2592
    135  O         20.3500   14.4220   17.9460 O.2   233  MET233     -0.2718
    136  CB        18.5680   13.3680   20.2820 C.3   233  MET233      0.0401
    137  CG        18.3140   12.3980   21.4400 C.3   233  MET233      0.0596
    138  SD        17.4090   13.1620   22.7830 S.3   233  MET233     -0.1393
    139  CE        15.7250   13.1170   22.1910 C.3   233  MET233      0.0692
    140  N         18.5360   13.6690   16.9600 N.am  234  GLY234     -0.1957
    141  CA        18.5370   14.7650   15.9970 C.3   234  GLY234      0.1869
    142  C         19.5920   14.6540   14.9210 C.2   234  GLY234      0.2309
    143  O         19.9530   15.6640   14.2990 O.2   234  GLY234     -0.2863
    144  N         17.3370    9.1140   14.9430 N.3   253  ASP253     -0.1239
    145  CA        16.0450    9.5060   14.4200 C.3   253  ASP253      0.1674
    146  C         16.1970   10.3420   13.1530 C.2   253  ASP253      0.2266
    147  O         17.2530   10.7830   12.7930 O.2   253  ASP253     -0.2867
    148  CB        15.1310   10.1870   15.4290 C.3   253  ASP253      0.1410
    149  CG        15.6950   11.4700   15.9570 C.2   253  ASP253      0.3668
    150  OD1       16.1880   11.5960   17.0880 O.co2 253  ASP253     -0.2456
    151  OD2       15.6160   12.4480   15.1530 O.co2 253  ASP253     -0.2456
@<TRIPOS>BOND
     1   147   146    2
     2   146   145    1
     3   125   126    2
     4   125   124    1
     5   123   124    1
     6   143   142    2
     7   145   144    1
     8   145   148    1
     9   122   121    1
    10   124   127    1
    11   142   141    1
    12   151   149   ar
    13   148   149    1
    14   121   118    1
    15   118   119    1
    16   118   117    1
    17   119   120    2
    18   149   150   ar
    19   141   140    1
    20   128   127    1
    21   128   129    1
    22   131   129   ar
    23   117   111   am
    24   140   134   am
    25   129   130   ar
    26    33    32   ar
    27    33    31   ar
    28    81    79   ar
    29    81    82   ar
    30    32    30   ar
    31    83    82    1
    32    79    77   ar
    33   134   135    2
    34   134   133    1
    35   111   112    2
    36   111   110    1
    37    82    80   ar
    38    31    29   ar
    39    42    40   am
    40    30    28   ar
    41    39    40    1
    42    39    38    1
    43    75    74    2
    44    77    76    1
    45    77    78   ar
    46   133   132    1
    47   133   136    1
    48    40    41    2
    49   110   113    1
    50   110   109    1
    51   113   114    1
    52    80    78   ar
    53    29    28   ar
    54    28    27    1
    55    76    73    1
    56    74    73    1
    57    38    35    1
    58     8     6   ar
    59    35    34    1
    60    35    36    1
    61   115   114    1
    62   136   137    1
    63    37    36    1
    64   109   107   am
    65    73    72    1
    66   114   116    1
    67    27    24    1
    68    26    25    2
    69    72    67   am
    70    34    25   am
    71     6     7   ar
    72     6     5    1
    73   108   107    2
    74    25    24    1
    75   107   106    1
    76   137   138    1
    77     5     2    1
    78    24    23    1
    79    67    66    1
    80    67    68    2
    81   139   138    1
    82     1     2    1
    83   106   105    1
    84    66    69    1
    85    66    65    1
    86    69    70    1
    87   105   103   am
    88     2     3    1
    89    23    21   am
    90   103   104    2
    91   103   102    1
    92    61    60    2
    93    56    55    1
    94   102   101    1
    95    70    71    1
    96    65    60   am
    97    65    71    1
    98     3     4    2
    99     3     9   am
   100    18    17    2
   101    60    59    1
   102    21    22    2
   103    21    20    1
   104    16    17    1
   105    16    15    1
   106    55    57    1
   107    55    52    1
   108    17    19   am
   109    15    11   am
   110     9    10    1
   111    19    20    1
   112    54    53    2
   113    58    53   am
   114    58    59    1
   115    53    52    1
   116    59    62    1
   117    11    10    1
   118    11    12    2
   119    52    51    1
   120    10    13    1
   121    99    98    2
   122   100    98   am
   123    62    64    1
   124    62    63    1
   125    90    88    1
   126    91    89    1
   127    50    48   ar
   128    14    13    1
   129    98    97    1
   130    49    48   ar
   131    89    88    1
   132    48    47    1
   133    88    85    1
   134    93    94    1
   135    93    92    1
   136    93    96    1
   137    97    96    1
   138    85    86    1
   139    85    84    1
   140    94    95    2
   141    46    45    2
   142    86    87    2
   143    47    44    1
   144    45    44    1
   145    43    44    1
