@<TRIPOS>MOLECULE
tmp/3bloA00.pdb
 130 125 0 0 0
SMALL
GASTEIGER

@<TRIPOS>ATOM
      1  N          9.5030   12.4180   22.0980 N.3    92  ASP92      -0.1225
      2  CA        10.3700   13.4490   22.6530 C.3    92  ASP92       0.1805
      3  C          9.6060   14.2060   23.7430 C.2    92  ASP92       0.2598
      4  O          8.4020   14.0260   23.9470 O.2    92  ASP92      -0.2718
      5  CB        10.8700   14.4130   21.5870 C.3    92  ASP92       0.1424
      6  CG         9.7720   15.0910   20.8120 C.2    92  ASP92       0.3668
      7  OD1        8.6330   15.1520   21.2950 O.co2  92  ASP92      -0.2456
      8  OD2       10.0700   15.5970   19.6980 O.co2  92  ASP92      -0.2456
      9  N         10.3410   15.0800   24.4450 N.am   93  SER93      -0.1952
     10  CA         9.7150   15.6580   25.6620 C.3    93  SER93       0.1924
     11  C          8.8590   16.8760   25.3960 C.2    93  SER93       0.2314
     12  O          8.1270   17.2660   26.3120 O.2    93  SER93      -0.2863
     13  CB        10.8800   16.0030   26.6020 C.3    93  SER93       0.2116
     14  OG        11.4740   17.1790   26.0730 O.3    93  SER93      -0.2180
     15  N         12.0260   21.0040   23.0960 N.3    96  PHE96      -0.1227
     16  CA        12.8910   21.5400   22.0480 C.3    96  PHE96       0.1736
     17  C         12.0720   22.4580   21.1440 C.2    96  PHE96       0.2595
     18  O         12.4590   23.5840   20.8490 O.2    96  PHE96      -0.2718
     19  CB        13.5310   20.4200   21.2400 C.3    96  PHE96       0.0547
     20  CG        14.3090   20.9950   20.0620 C.ar   96  PHE96      -0.0202
     21  CD1       15.5410   21.5850   20.2900 C.ar   96  PHE96      -0.0042
     22  CD2       13.7940   20.9310   18.7830 C.ar   96  PHE96      -0.0042
     23  CE1       16.2500   22.1100   19.2290 C.ar   96  PHE96      -0.0003
     24  CE2       14.5080   21.4510   17.7180 C.ar   96  PHE96      -0.0003
     25  CZ        15.7430   22.0280   17.9430 C.ar   96  PHE96      -0.0000
     26  N         10.9280   21.9140   20.7530 N.am   97  GLN97      -0.1979
     27  CA         9.9930   22.6020   19.8690 C.3    97  GLN97       0.1601
     28  C          9.3550   23.8020   20.5390 C.2    97  GLN97       0.2287
     29  O          9.0020   24.7590   19.8360 O.2    97  GLN97      -0.2864
     30  CB         8.9390   21.6230   19.3430 C.3    97  GLN97       0.0394
     31  CG         9.5570   20.6530   18.3320 C.3    97  GLN97       0.0908
     32  CD        10.3400   19.5550   19.0130 C.2    97  GLN97       0.2608
     33  OE1       10.0960   19.2720   20.1880 O.2    97  GLN97      -0.2717
     34  NE2       11.2970   18.9600   18.3020 N.am   97  GLN97      -0.0878
     35  N         14.4310   18.1980   29.3190 N.3   130  ASP130     -0.1239
     36  CA        15.6300   18.9780   29.4780 C.3   130  ASP130      0.1674
     37  C         15.3900   20.4180   29.0160 C.2   130  ASP130      0.2266
     38  O         14.3710   20.8070   28.4880 O.2   130  ASP130     -0.2867
     39  CB        16.8190   18.3770   28.7290 C.3   130  ASP130      0.1410
     40  CG        16.6040   18.2710   27.2380 C.2   130  ASP130      0.3668
     41  OD1       15.4240   18.4250   26.8330 O.co2 130  ASP130     -0.2456
     42  OD2       17.5740   18.0670   26.4830 O.co2 130  ASP130     -0.2456
     43  N         17.1010   23.2700   26.5880 N.3   132  VAL132     -0.1231
     44  CA        17.8690   23.4870   25.3840 C.3   132  VAL132      0.1692
     45  C         19.0810   24.3570   25.6460 C.2   132  VAL132      0.2593
     46  O         18.8740   25.5200   25.9810 O.2   132  VAL132     -0.2718
     47  CB        16.9900   24.2630   24.3750 C.3   132  VAL132      0.0266
     48  CG1       17.8660   24.7740   23.2340 C.3   132  VAL132      0.0020
     49  CG2       15.8270   23.4120   23.8960 C.3   132  VAL132      0.0020
     50  N         20.2860   23.8660   25.4950 N.am  133  THR133     -0.1940
     51  CA        21.4610   24.7260   25.4790 C.3   133  THR133      0.2013
     52  C         21.7400   25.1570   24.0420 C.2   133  THR133      0.2484
     53  O         22.0580   24.3590   23.1490 O.2   133  THR133     -0.2729
     54  CB        22.7220   24.0350   26.0330 C.3   133  THR133      0.1807
     55  OG1       22.4830   23.4820   27.3380 O.3   133  THR133     -0.2208
     56  CG2       23.8440   25.0630   26.1700 C.3   133  THR133      0.0379
     57  N         21.6540   26.4510   23.7910 N.am  134  PRO134     -0.2715
     58  CA        21.8750   26.9190   22.4190 C.3   134  PRO134      0.1536
     59  C         23.3400   26.7520   22.0310 C.2   134  PRO134      0.2598
     60  O         24.2190   26.6710   22.8940 O.2   134  PRO134     -0.2715
     61  CB        21.5150   28.4030   22.5050 C.3   134  PRO134      0.0310
     62  CG        21.8460   28.7550   23.9260 C.3   134  PRO134      0.0237
     63  CD        21.4010   27.5540   24.7240 C.3   134  PRO134      0.0939
     64  N         23.5970   26.6970   20.7270 N.am  135  TYR135     -0.1974
     65  CA        24.9670   26.6520   20.2480 C.3   135  TYR135      0.1639
     66  C         25.2660   27.9320   19.4780 C.2   135  TYR135      0.2290
     67  O         24.4930   28.2730   18.5740 O.2   135  TYR135     -0.2864
     68  CB        25.2700   25.4740   19.3170 C.3   135  TYR135      0.0560
     69  CG        26.6830   25.5030   18.7660 C.ar  135  TYR135     -0.0198
     70  CD1       27.7310   25.0330   19.5420 C.ar  135  TYR135     -0.0009
     71  CD2       26.9970   25.9800   17.5030 C.ar  135  TYR135     -0.0009
     72  CE1       29.0360   25.0410   19.0850 C.ar  135  TYR135      0.0417
     73  CE2       28.2870   26.0050   17.0300 C.ar  135  TYR135      0.0417
     74  CZ        29.3100   25.5290   17.8220 C.ar  135  TYR135      0.1957
     75  OH        30.6040   25.5470   17.3420 O.3   135  TYR135     -0.2866
     76  N         18.9450   12.5830   29.1640 N.3   175  ILE175     -0.1245
     77  CA        19.6470   13.3250   28.1390 C.3   175  ILE175      0.1561
     78  C         20.8750   14.0480   28.7090 C.2   175  ILE175      0.2260
     79  O         20.7780   14.8630   29.6290 O.2   175  ILE175     -0.2867
     80  CB        18.7450   14.3610   27.4240 C.3   175  ILE175      0.0252
     81  CG1       17.3990   13.7670   27.0010 C.3   175  ILE175      0.0019
     82  CG2       19.4800   14.9840   26.2580 C.3   175  ILE175      0.0019
     83  CD1       16.3140   14.7360   26.6070 C.3   175  ILE175      0.0001
     84  N         23.7850   16.7900   28.3310 N.3   177  GLN177     -0.1245
     85  CA        24.0100   18.1630   28.0200 C.3   177  GLN177      0.1566
     86  C         25.4490   18.5270   28.3770 C.2   177  GLN177      0.2260
     87  O         26.2100   17.6420   28.7040 O.2   177  GLN177     -0.2867
     88  CB        22.9770   19.0280   28.7480 C.3   177  GLN177      0.0367
     89  CG        21.5720   18.7790   28.2170 C.3   177  GLN177      0.0905
     90  CD        21.3940   19.3000   26.8050 C.2   177  GLN177      0.2608
     91  OE1       22.2720   20.0050   26.3260 O.2   177  GLN177     -0.2717
     92  NE2       20.2840   18.9790   26.1280 N.am  177  GLN177     -0.0878
     93  N         22.3260   14.9250   23.9710 N.3   203  GLY203     -0.1210
     94  CA        21.6240   16.1040   23.5370 C.3   203  GLY203      0.1956
     95  C         22.5830   17.2430   23.2510 C.2   203  GLY203      0.2612
     96  O         23.7670   17.2240   23.5460 O.2   203  GLY203     -0.2717
     97  N         22.0390   18.2980   22.6510 N.am  204  GLY204     -0.1942
     98  CA        22.8250   19.5030   22.4920 C.3   204  GLY204      0.2014
     99  C         23.5990   19.5870   21.1970 C.2   204  GLY204      0.2639
    100  O         24.1530   20.6600   20.9450 O.2   204  GLY204     -0.2714
    101  N         23.6600   18.5470   20.3750 N.am  205  LEU205     -0.1963
    102  CA        24.4590   18.6120   19.1390 C.3   205  LEU205      0.1728
    103  C         23.6580   18.7390   17.8670 C.2   205  LEU205      0.2617
    104  O         22.4300   18.7310   17.8370 O.2   205  LEU205     -0.2715
    105  CB        25.3510   17.3540   19.0770 C.3   205  LEU205      0.0311
    106  CG        26.2830   17.2080   20.2790 C.3   205  LEU205      0.0022
    107  CD1       27.0250   15.8840   20.2100 C.3   205  LEU205      0.0001
    108  CD2       27.2490   18.3810   20.3610 C.3   205  LEU205      0.0001
    109  N         24.3790   18.8730   16.7590 N.am  206  SER206     -0.1936
    110  CA        23.7450   19.1820   15.4870 C.3   206  SER206      0.2055
    111  C         22.9780   20.5000   15.5590 C.2   206  SER206      0.2643
    112  O         21.7750   20.5830   15.2880 O.2   206  SER206     -0.2714
    113  CB        22.8070   18.0600   15.0510 C.3   206  SER206      0.2130
    114  OG        21.6090   18.0400   15.8120 O.3   206  SER206     -0.2179
    115  N         23.6850   21.5720   15.9220 N.am  207  GLY207     -0.1954
    116  CA        23.0160   22.8580   16.0260 C.3   207  GLY207      0.1869
    117  C         23.8570   24.0240   15.5440 C.2   207  GLY207      0.2309
    118  O         23.6400   25.1520   15.9950 O.2   207  GLY207     -0.2863
    119  N         20.4400   12.6380   19.3850 N.3   234  MET234     -0.1230
    120  CA        19.1890   13.2750   19.0920 C.3   234  MET234      0.1702
    121  C         19.3280   14.2580   17.9220 C.2   234  MET234      0.2592
    122  O         20.2250   15.0800   17.9510 O.2   234  MET234     -0.2718
    123  CB        18.6480   14.0370   20.3190 C.3   234  MET234      0.0401
    124  CG        18.5430   13.1490   21.5540 C.3   234  MET234      0.0596
    125  SD        17.6860   13.9720   22.9260 S.3   234  MET234     -0.1393
    126  CE        16.0110   13.9580   22.3290 C.3   234  MET234      0.0692
    127  N         18.4460   14.1120   16.9600 N.am  235  GLY235     -0.1957
    128  CA        18.3560   15.0800   15.8700 C.3   235  GLY235      0.1869
    129  C         19.5630   15.0630   14.9490 C.2   235  GLY235      0.2309
    130  O         20.0090   16.1250   14.5030 O.2   235  GLY235     -0.2863
@<TRIPOS>BOND
     1   130   129    2
     2   129   128    1
     3   113   110    1
     4   113   114    1
     5   112   111    2
     6   110   111    1
     7   110   109    1
     8   117   118    2
     9   117   116    1
    10   111   115   am
    11   128   127    1
    12   115   116    1
    13   109   103   am
    14   127   121   am
    15    73    71   ar
    16    73    74   ar
    17    75    74    1
    18    71    69   ar
    19    24    25   ar
    20    24    22   ar
    21    74    72   ar
    22   104   103    2
    23   103   102    1
    24   121   122    2
    25   121   120    1
    26    25    23   ar
    27    34    32   am
    28    31    32    1
    29    31    30    1
    30    67    66    2
    31    69    68    1
    32    69    70   ar
    33    22    20   ar
    34    32    33    2
    35   105   102    1
    36   105   106    1
    37    72    70   ar
    38   120   119    1
    39   120   123    1
    40   102   101    1
    41    23    21   ar
    42    68    65    1
    43    30    27    1
    44    66    65    1
    45     8     6   ar
    46    29    28    2
    47    27    28    1
    48    27    26    1
    49    20    21   ar
    50    20    19    1
    51   107   106    1
    52    65    64    1
    53   106   108    1
    54   123   124    1
    55   101    99   am
    56    64    59   am
    57    26    17   am
    58     6     7   ar
    59     6     5    1
    60    18    17    2
    61   100    99    2
    62    17    16    1
    63    99    98    1
    64    19    16    1
    65   124   125    1
    66     5     2    1
    67    59    58    1
    68    59    60    2
    69    16    15    1
    70     1     2    1
    71   126   125    1
    72    58    61    1
    73    58    57    1
    74    98    97    1
    75    61    62    1
    76    97    95   am
    77     2     3    1
    78    53    52    2
    79    48    47    1
    80    95    94    1
    81    95    96    2
    82    94    93    1
    83     3     4    2
    84     3     9   am
    85    57    52   am
    86    57    63    1
    87    49    47    1
    88    62    63    1
    89    52    51    1
    90    47    44    1
    91     9    10    1
    92    44    45    1
    93    44    43    1
    94    11    10    1
    95    11    12    2
    96    51    50    1
    97    51    54    1
    98    50    45   am
    99    45    46    2
   100    10    13    1
   101    54    56    1
   102    54    55    1
   103    14    13    1
   104    92    90   am
   105    82    80    1
   106    91    90    2
   107    42    40   ar
   108    83    81    1
   109    90    89    1
   110    41    40   ar
   111    81    80    1
   112    40    39    1
   113    80    77    1
   114    85    84    1
   115    85    86    1
   116    85    88    1
   117    77    78    1
   118    77    76    1
   119    89    88    1
   120    86    87    2
   121    38    37    2
   122    78    79    2
   123    39    36    1
   124    37    36    1
   125    35    36    1
