@<TRIPOS>MOLECULE
tmp/3blqA00.pdb
 163 152 0 0 0
SMALL
GASTEIGER

@<TRIPOS>ATOM
      1  N         55.9750  -21.7520  -19.0310 N.3    19  ILE19      -0.1231
      2  CA        56.3640  -21.7950  -17.6260 C.3    19  ILE19       0.1692
      3  C         55.2540  -22.3760  -16.7500 C.2    19  ILE19       0.2593
      4  O         55.3940  -22.4840  -15.5300 O.2    19  ILE19      -0.2718
      5  CB        56.8230  -20.4090  -17.1150 C.3    19  ILE19       0.0266
      6  CG1       55.6330  -19.4430  -17.0060 C.3    19  ILE19       0.0019
      7  CG2       57.8940  -19.8540  -18.0370 C.3    19  ILE19       0.0020
      8  CD1       55.9990  -18.0280  -16.5320 C.3    19  ILE19       0.0001
      9  N         54.1560  -22.7660  -17.3870 N.am   20  GLY20      -0.1942
     10  CA        53.0620  -23.4070  -16.6820 C.3    20  GLY20       0.2014
     11  C         51.8980  -23.7690  -17.5840 C.2    20  GLY20       0.2639
     12  O         51.8950  -23.4530  -18.7780 O.2    20  GLY20      -0.2714
     13  N         50.9090  -24.4460  -17.0060 N.am   21  GLN21      -0.1963
     14  CA        49.6720  -24.7830  -17.7080 C.3    21  GLN21       0.1733
     15  C         48.5020  -24.1180  -16.9840 C.2    21  GLN21       0.2617
     16  O         48.4700  -24.0800  -15.7540 O.2    21  GLN21      -0.2715
     17  CB        49.4860  -26.3090  -17.7770 C.3    21  GLN21       0.0408
     18  CG        48.1370  -26.7700  -18.3220 C.3    21  GLN21       0.0908
     19  CD        47.8810  -26.2970  -19.7450 C.2    21  GLN21       0.2608
     20  OE1       48.8160  -25.9810  -20.4860 O.2    21  GLN21      -0.2717
     21  NE2       46.6080  -26.2530  -20.1350 N.am   21  GLN21      -0.0878
     22  N         47.5540  -23.5770  -17.7430 N.am   22  GLY22      -0.1940
     23  CA        46.4090  -22.8990  -17.1610 C.3    22  GLY22       0.2014
     24  C         45.1070  -23.6700  -17.2940 C.2    22  GLY22       0.2639
     25  O         45.0980  -24.8230  -17.7340 O.2    22  GLY22      -0.2714
     26  N         44.0040  -23.0290  -16.9060 N.am   23  THR23      -0.1950
     27  CA        42.6710  -23.6250  -17.0100 C.3    23  THR23       0.1897
     28  C         42.0790  -23.3920  -18.4050 C.2    23  THR23       0.2313
     29  O         41.1010  -24.0380  -18.7950 O.2    23  THR23      -0.2863
     30  CB        41.6970  -23.0670  -15.9260 C.3    23  THR23       0.1794
     31  OG1       42.3500  -23.0340  -14.6490 O.3    23  THR23      -0.2208
     32  CG2       40.4220  -23.9210  -15.8330 C.3    23  THR23       0.0378
     33  N         50.8780  -20.8900  -20.1730 N.3    27  VAL27      -0.1245
     34  CA        51.4810  -19.6920  -19.5860 C.3    27  VAL27       0.1561
     35  C         52.9470  -19.5520  -20.0320 C.2    27  VAL27       0.2260
     36  O         53.7280  -20.4930  -19.8950 O.2    27  VAL27      -0.2867
     37  CB        51.4570  -19.7720  -18.0460 C.3    27  VAL27       0.0252
     38  CG1       51.4670  -18.3790  -17.4280 C.3    27  VAL27       0.0019
     39  CG2       50.2490  -20.5440  -17.5920 C.3    27  VAL27       0.0019
     40  N         54.4710  -12.1770  -17.6830 N.3    40  ALA40      -0.1245
     41  CA        53.8980  -13.5110  -17.8190 C.3    40  ALA40       0.1562
     42  C         52.6370  -13.4490  -18.6680 C.2    40  ALA40       0.2260
     43  O         51.6920  -12.7460  -18.3220 O.2    40  ALA40      -0.2867
     44  CB        53.5950  -14.1150  -16.4520 C.3    40  ALA40       0.0290
     45  N         49.4310  -15.3180  -19.8040 N.3    42  LYS42      -0.1245
     46  CA        48.5970  -16.4150  -19.3410 C.3    42  LYS42       0.1561
     47  C         47.4080  -16.4710  -20.2930 C.2    42  LYS42       0.2260
     48  O         46.5110  -15.6270  -20.2350 O.2    42  LYS42      -0.2867
     49  CB        48.1720  -16.1540  -17.8950 C.3    42  LYS42       0.0271
     50  CG        47.6190  -17.3320  -17.1380 C.3    42  LYS42       0.0035
     51  CD        47.2510  -16.9290  -15.7110 C.3    42  LYS42       0.0206
     52  CE        46.0140  -17.6790  -15.2080 C.3    42  LYS42       0.1093
     53  NZ        45.7900  -17.4730  -13.7450 N.3    42  LYS42      -0.1314
     54  N         49.8110   -9.4460   -7.2750 N.3    73  VAL73      -0.1245
     55  CA        50.1060   -9.5520   -8.7020 C.3    73  VAL73       0.1561
     56  C         49.4560   -8.4320   -9.4970 C.2    73  VAL73       0.2260
     57  O         48.3200   -8.0580   -9.2460 O.2    73  VAL73      -0.2867
     58  CB        49.6220  -10.9000   -9.2750 C.3    73  VAL73       0.0252
     59  CG1       49.6720  -10.8730  -10.7590 C.3    73  VAL73       0.0019
     60  CG2       50.5020  -12.0050   -8.7990 C.3    73  VAL73       0.0019
     61  N         50.7100  -10.2730  -17.2480 N.3    87  PHE87      -0.1227
     62  CA        51.1220   -9.9310  -15.8770 C.3    87  PHE87       0.1736
     63  C         52.5650   -9.4320  -15.7770 C.2    87  PHE87       0.2595
     64  O         53.3710   -9.7120  -16.6550 O.2    87  PHE87      -0.2718
     65  CB        50.9950  -11.1550  -14.9750 C.3    87  PHE87       0.0547
     66  CG        49.5930  -11.6650  -14.8230 C.ar   87  PHE87      -0.0202
     67  CD1       48.7880  -11.2140  -13.7970 C.ar   87  PHE87      -0.0042
     68  CD2       49.0880  -12.6190  -15.6870 C.ar   87  PHE87      -0.0042
     69  CE1       47.4960  -11.6990  -13.6370 C.ar   87  PHE87      -0.0003
     70  CE2       47.7910  -13.1050  -15.5350 C.ar   87  PHE87      -0.0003
     71  CZ        46.9970  -12.6390  -14.5070 C.ar   87  PHE87      -0.0000
     72  N         52.8900   -8.7070  -14.7020 N.am   88  ASP88      -0.1960
     73  CA        54.2900   -8.4310  -14.3330 C.3    88  ASP88       0.1840
     74  C         54.9690   -9.7600  -14.0060 C.2    88  ASP88       0.2622
     75  O         54.4040  -10.5720  -13.2730 O.2    88  ASP88      -0.2715
     76  CB        54.3590   -7.5520  -13.0820 C.3    88  ASP88       0.1450
     77  CG        54.3160   -6.0560  -13.3840 C.2    88  ASP88       0.3671
     78  OD1       54.7510   -5.6200  -14.4780 O.co2  88  ASP88      -0.2456
     79  OD2       53.8600   -5.3080  -12.4870 O.co2  88  ASP88      -0.2456
     80  N         56.1740   -9.9930  -14.5200 N.am   89  PHE89      -0.1960
     81  CA        56.8400  -11.2860  -14.2990 C.3    89  PHE89       0.1771
     82  C         57.4350  -11.4530  -12.8960 C.2    89  PHE89       0.2619
     83  O         58.0400  -10.5220  -12.3590 O.2    89  PHE89      -0.2715
     84  CB        57.9140  -11.5350  -15.3520 C.3    89  PHE89       0.0574
     85  CG        58.5470  -12.8920  -15.2500 C.ar   89  PHE89      -0.0200
     86  CD1       57.9150  -14.0040  -15.7770 C.ar   89  PHE89      -0.0042
     87  CD2       59.7670  -13.0610  -14.6170 C.ar   89  PHE89      -0.0042
     88  CE1       58.4940  -15.2540  -15.6820 C.ar   89  PHE89      -0.0003
     89  CE2       60.3400  -14.3100  -14.5120 C.ar   89  PHE89      -0.0003
     90  CZ        59.7060  -15.4040  -15.0450 C.ar   89  PHE89      -0.0000
     91  N         57.2680  -12.6440  -12.3180 N.am   90  CYS90      -0.1968
     92  CA        57.7290  -12.9460  -10.9530 C.3    90  CYS90       0.1712
     93  C         58.5920  -14.2060  -10.9000 C.2    90  CYS90       0.2296
     94  O         58.0750  -15.3330  -11.0260 O.2    90  CYS90      -0.2864
     95  CB        56.5420  -13.1210   -9.9960 C.3    90  CYS90       0.0983
     96  SG        55.6420  -11.6130   -9.6040 S.3    90  CYS90      -0.0798
     97  N         58.7460  -18.5620   -6.3290 N.3    93  ASP93      -0.1239
     98  CA        57.4850  -18.8130   -5.6410 C.3    93  ASP93       0.1674
     99  C         57.7020  -19.5840   -4.3280 C.2    93  ASP93       0.2266
    100  O         58.5220  -20.4970   -4.2560 O.2    93  ASP93      -0.2867
    101  CB        56.4780  -19.5170   -6.5570 C.3    93  ASP93       0.1410
    102  CG        56.7360  -20.9960   -6.6810 C.2    93  ASP93       0.3668
    103  OD1       57.6850  -21.3780   -7.3980 O.co2  93  ASP93      -0.2456
    104  OD2       55.9810  -21.7780   -6.0660 O.co2  93  ASP93      -0.2456
    105  N         42.3510  -19.4210   -2.4500 N.3   133  ASP133     -0.1239
    106  CA        43.3030  -20.4020   -2.9320 C.3   133  ASP133      0.1674
    107  C         44.6570  -20.2080   -2.2710 C.2   133  ASP133      0.2266
    108  O         45.7070  -20.4130   -2.8850 O.2   133  ASP133     -0.2867
    109  CB        43.4110  -20.3750   -4.4550 C.3   133  ASP133      0.1410
    110  CG        43.8170  -21.7210   -5.0280 C.2   133  ASP133      0.3668
    111  OD1       43.9730  -22.6880   -4.2420 O.co2 133  ASP133     -0.2456
    112  OD2       43.9780  -21.8080   -6.2640 O.co2 133  ASP133     -0.2456
    113  N         47.8610  -20.9010   -0.6160 N.3   135  LYS135     -0.1245
    114  CA        48.7980  -22.0140   -0.5620 C.3   135  LYS135      0.1561
    115  C         50.1370  -21.4870   -1.0460 C.2   135  LYS135      0.2260
    116  O         50.1840  -20.5340   -1.8170 O.2   135  LYS135     -0.2867
    117  CB        48.3300  -23.1830   -1.4270 C.3   135  LYS135      0.0271
    118  CG        48.5380  -23.0100   -2.9270 C.3   135  LYS135      0.0035
    119  CD        47.6250  -23.9560   -3.7040 C.3   135  LYS135      0.0206
    120  CE        47.9730  -24.0080   -5.1890 C.3   135  LYS135      0.1093
    121  NZ        46.9260  -24.7280   -5.9890 N.3   135  LYS135     -0.1314
    122  N         52.1770  -22.2340   -3.1750 N.3   137  ALA137     -0.1231
    123  CA        52.3920  -22.1990   -4.6190 C.3   137  ALA137      0.1694
    124  C         51.8090  -20.9390   -5.2580 C.2   137  ALA137      0.2592
    125  O         52.1050  -20.6140   -6.4140 O.2   137  ALA137     -0.2718
    126  CB        51.8090  -23.4460   -5.2670 C.3   137  ALA137      0.0304
    127  N         50.9830  -20.2320   -4.4950 N.am  138  ASN138     -0.1974
    128  CA        50.3400  -19.0270   -4.9870 C.3   138  ASN138      0.1688
    129  C         50.8840  -17.7310   -4.3970 C.2   138  ASN138      0.2292
    130  O         50.3180  -16.6590   -4.6050 O.2   138  ASN138     -0.2864
    131  CB        48.8430  -19.1150   -4.7660 C.3   138  ASN138      0.1181
    132  CG        48.1600  -19.8380   -5.8710 C.2   138  ASN138      0.2629
    133  OD1       48.7590  -20.0780   -6.9200 O.2   138  ASN138     -0.2716
    134  ND2       46.8970  -20.1930   -5.6610 N.am  138  ASN138     -0.0877
    135  N         53.9600  -15.4090   -4.8400 N.3   140  LEU140     -0.1245
    136  CA        55.1090  -15.1840   -5.7050 C.3   140  LEU140      0.1561
    137  C         56.0480  -14.1680   -5.0850 C.2   140  LEU140      0.2260
    138  O         55.6080  -13.3110   -4.3110 O.2   140  LEU140     -0.2867
    139  CB        54.6690  -14.6820   -7.0740 C.3   140  LEU140      0.0270
    140  CG        53.6200  -15.5020   -7.8150 C.3   140  LEU140      0.0019
    141  CD1       53.2690  -14.8050   -9.1130 C.3   140  LEU140      0.0001
    142  CD2       54.0790  -16.9230   -8.0720 C.3   140  LEU140      0.0001
    143  N         49.0130  -14.0710   -5.6030 N.3   150  ALA150     -0.1231
    144  CA        48.7900  -14.3950   -7.0130 C.3   150  ALA150      0.1694
    145  C         47.7020  -15.4370   -7.2490 C.2   150  ALA150      0.2592
    146  O         47.2490  -16.0990   -6.3160 O.2   150  ALA150     -0.2718
    147  CB        50.0890  -14.8430   -7.6580 C.3   150  ALA150      0.0304
    148  N         47.2910  -15.5750   -8.5080 N.am  151  ASP151     -0.1974
    149  CA        46.2940  -16.5710   -8.8860 C.3   151  ASP151      0.1709
    150  C         44.9420  -16.3600   -8.2060 C.2   151  ASP151      0.2293
    151  O         44.6390  -17.0140   -7.2030 O.2   151  ASP151     -0.2864
    152  CB        46.7980  -17.9860   -8.5910 C.3   151  ASP151      0.1436
    153  CG        45.9630  -19.0550   -9.2730 C.2   151  ASP151      0.3671
    154  OD1       44.8630  -18.7360   -9.7840 O.co2 151  ASP151     -0.2456
    155  OD2       46.4140  -20.2200   -9.3040 O.co2 151  ASP151     -0.2456
    156  N         40.1320  -18.5650   -8.3690 N.3   154  LEU154     -0.1245
    157  CA        39.0570  -19.0060   -7.4860 C.3   154  LEU154      0.1561
    158  C         38.4580  -17.8590   -6.6460 C.2   154  LEU154      0.2260
    159  O         37.4640  -18.0520   -5.9470 O.2   154  LEU154     -0.2867
    160  CB        39.5640  -20.1040   -6.5480 C.3   154  LEU154      0.0270
    161  CG        39.3060  -21.5750   -6.8720 C.3   154  LEU154      0.0019
    162  CD1       37.8310  -21.9050   -6.6090 C.3   154  LEU154      0.0001
    163  CD2       39.7510  -21.9080   -8.3090 C.3   154  LEU154      0.0001
@<TRIPOS>BOND
     1    20    19    2
     2    47    48    2
     3    47    46    1
     4    33    34    1
     5    21    19   am
     6    35    36    2
     7    35    34    1
     8    45    46    1
     9    19    18    1
    10    34    37    1
    11    46    49    1
    12     1     2    1
    13    29    28    2
    14    12    11    2
    15    42    43    2
    16    42    41    1
    17    28    27    1
    18    18    17    1
    19    37    39    1
    20    37    38    1
    21     7     5    1
    22    49    50    1
    23    41    40    1
    24    41    44    1
    25    17    14    1
    26    22    23    1
    27    22    15   am
    28    25    24    2
    29    14    13    1
    30    14    15    1
    31     2     5    1
    32     2     3    1
    33    11    13   am
    34    11    10    1
    35     9     3   am
    36     9    10    1
    37    24    23    1
    38    24    26   am
    39    61    62    1
    40    50    51    1
    41     5     6    1
    42    27    26    1
    43    27    30    1
    44     6     8    1
    45    15    16    2
    46     3     4    2
    47    64    63    2
    48    30    32    1
    49    30    31    1
    50    62    63    1
    51    62    65    1
    52    86    88   ar
    53    86    85   ar
    54    63    72   am
    55    51    52    1
    56    68    70   ar
    57    68    66   ar
    58    88    90   ar
    59    70    71   ar
    60    84    85    1
    61    84    81    1
    62    85    87   ar
    63    52    53    1
    64    90    89   ar
    65    65    66    1
    66    66    67   ar
    67    72    73    1
    68    87    89   ar
    69    80    81    1
    70    80    74   am
    71    71    69   ar
    72    78    77   ar
    73    73    74    1
    74    73    76    1
    75    81    82    1
    76    74    75    2
    77    67    69   ar
    78    77    76    1
    79    77    79   ar
    80    82    83    2
    81    82    91   am
    82    91    92    1
    83    94    93    2
    84    92    93    1
    85    92    95    1
    86    59    58    1
    87    95    96    1
    88   154   153   ar
    89    56    57    2
    90    56    55    1
    91   155   153   ar
    92    58    60    1
    93    58    55    1
    94   153   152    1
    95   141   140    1
    96   149   152    1
    97   149   148    1
    98   149   150    1
    99    55    54    1
   100   148   145   am
   101   156   157    1
   102   163   161    1
   103   150   151    2
   104   142   140    1
   105   140   139    1
   106   147   144    1
   107   157   158    1
   108   157   160    1
   109   103   102   ar
   110   145   144    1
   111   145   146    2
   112   139   136    1
   113   144   143    1
   114   133   132    2
   115   161   162    1
   116   161   160    1
   117   102   101    1
   118   102   104   ar
   119   158   159    2
   120   101    98    1
   121   125   124    2
   122    97    98    1
   123   112   110   ar
   124   121   120    1
   125   132   134   am
   126   132   131    1
   127   136   137    1
   128   136   135    1
   129    98    99    1
   130   126   123    1
   131   124   123    1
   132   124   127   am
   133   120   119    1
   134   137   138    2
   135   110   109    1
   136   110   111   ar
   137   128   131    1
   138   128   127    1
   139   128   129    1
   140   123   122    1
   141   130   129    2
   142   109   106    1
   143    99   100    2
   144   119   118    1
   145   106   105    1
   146   106   107    1
   147   118   117    1
   148   108   107    2
   149   116   115    2
   150   117   114    1
   151   115   114    1
   152   113   114    1
