@<TRIPOS>MOLECULE
tmp/3blrA00.pdb
 157 150 0 0 0
SMALL
GASTEIGER

@<TRIPOS>ATOM
      1  N         57.3940  -20.8010  -19.2910 N.3    19  ILE19      -0.1231
      2  CA        57.8890  -20.9720  -17.9310 C.3    19  ILE19       0.1692
      3  C         56.9310  -21.6830  -16.9780 C.2    19  ILE19       0.2592
      4  O         57.3130  -22.0390  -15.8650 O.2    19  ILE19      -0.2718
      5  CB        58.2350  -19.6150  -17.3070 C.3    19  ILE19       0.0266
      6  CG1       56.9650  -18.7790  -17.1430 C.3    19  ILE19       0.0019
      7  CG2       59.2540  -18.8900  -18.1680 C.3    19  ILE19       0.0020
      8  CD1       57.1320  -17.5790  -16.2620 C.3    19  ILE19       0.0001
      9  N         55.6910  -21.8880  -17.4020 N.am   20  GLY20      -0.1957
     10  CA        54.6980  -22.4660  -16.5160 C.3    20  GLY20       0.1869
     11  C         53.8360  -23.5470  -17.1370 C.2    20  GLY20       0.2309
     12  O         53.0130  -23.2750  -18.0250 O.2    20  GLY20      -0.2863
     13  N         46.6140  -24.7010  -15.3250 N.3    24  PHE24      -0.1241
     14  CA        46.2390  -23.2900  -15.2840 C.3    24  PHE24       0.1605
     15  C         46.3650  -22.6640  -16.6730 C.2    24  PHE24       0.2264
     16  O         45.9390  -21.5270  -16.9020 O.2    24  PHE24      -0.2867
     17  CB        47.1380  -22.5380  -14.3050 C.3    24  PHE24       0.0534
     18  CG        48.6030  -22.7030  -14.5890 C.ar   24  PHE24      -0.0203
     19  CD1       49.3590  -23.6240  -13.8830 C.ar   24  PHE24      -0.0042
     20  CD2       49.2230  -21.9490  -15.5750 C.ar   24  PHE24      -0.0042
     21  CE1       50.7110  -23.7790  -14.1430 C.ar   24  PHE24      -0.0003
     22  CE2       50.5730  -22.1040  -15.8440 C.ar   24  PHE24      -0.0003
     23  CZ        51.3180  -23.0160  -15.1240 C.ar   24  PHE24      -0.0000
     24  N         51.9410  -20.1670  -19.3480 N.3    27  VAL27      -0.1245
     25  CA        52.5740  -18.8960  -19.0010 C.3    27  VAL27       0.1561
     26  C         53.9130  -18.7060  -19.7200 C.2    27  VAL27       0.2260
     27  O         54.7960  -19.5560  -19.6330 O.2    27  VAL27      -0.2867
     28  CB        52.8010  -18.7950  -17.4980 C.3    27  VAL27       0.0252
     29  CG1       53.2990  -17.4110  -17.1350 C.3    27  VAL27       0.0019
     30  CG2       51.5210  -19.1050  -16.7780 C.3    27  VAL27       0.0019
     31  N         54.8110  -11.2730  -18.2570 N.3    40  ALA40      -0.1245
     32  CA        54.2620  -12.6230  -18.2860 C.3    40  ALA40       0.1562
     33  C         52.9900  -12.6240  -19.1400 C.2    40  ALA40       0.2260
     34  O         52.0990  -11.8210  -18.9210 O.2    40  ALA40      -0.2867
     35  CB        53.9570  -13.0980  -16.8760 C.3    40  ALA40       0.0290
     36  N         49.7830  -14.7960  -20.1550 N.3    42  LYS42      -0.1245
     37  CA        48.9880  -15.9330  -19.7070 C.3    42  LYS42       0.1561
     38  C         47.7410  -16.0440  -20.5850 C.2    42  LYS42       0.2260
     39  O         46.7910  -15.2750  -20.4250 O.2    42  LYS42      -0.2867
     40  CB        48.5930  -15.7140  -18.2520 C.3    42  LYS42       0.0271
     41  CG        48.1290  -16.9420  -17.5040 C.3    42  LYS42       0.0035
     42  CD        47.5220  -16.5250  -16.1680 C.3    42  LYS42       0.0206
     43  CE        46.8980  -17.6960  -15.4390 C.3    42  LYS42       0.1093
     44  NZ        45.8150  -17.2270  -14.5340 N.3    42  LYS42      -0.1314
     45  N         50.3260   -9.0800   -7.8690 N.3    73  VAL73      -0.1245
     46  CA        50.7780   -9.1210   -9.2530 C.3    73  VAL73       0.1561
     47  C         50.0380   -8.0700  -10.1020 C.2    73  VAL73       0.2260
     48  O         48.9040   -7.7220   -9.8100 O.2    73  VAL73      -0.2867
     49  CB        50.5670  -10.5200   -9.8190 C.3    73  VAL73       0.0252
     50  CG1       49.1130  -10.7100  -10.1650 C.3    73  VAL73       0.0019
     51  CG2       51.4570  -10.7530  -11.0050 C.3    73  VAL73       0.0019
     52  N         51.0480   -9.4770  -17.7070 N.3    87  PHE87      -0.1227
     53  CA        51.5250   -8.9690  -16.4140 C.3    87  PHE87       0.1736
     54  C         52.9500   -8.4300  -16.4570 C.2    87  PHE87       0.2595
     55  O         53.7110   -8.7180  -17.3760 O.2    87  PHE87      -0.2718
     56  CB        51.5030  -10.0730  -15.3710 C.3    87  PHE87       0.0547
     57  CG        50.1850  -10.7510  -15.2330 C.ar   87  PHE87      -0.0202
     58  CD1       49.2640  -10.3200  -14.2880 C.ar   87  PHE87      -0.0042
     59  CD2       49.8700  -11.8330  -16.0300 C.ar   87  PHE87      -0.0042
     60  CE1       48.0430  -10.9520  -14.1540 C.ar   87  PHE87      -0.0003
     61  CE2       48.6470  -12.4750  -15.8970 C.ar   87  PHE87      -0.0003
     62  CZ        47.7330  -12.0330  -14.9590 C.ar   87  PHE87      -0.0000
     63  N         53.3130   -7.6480  -15.4490 N.am   88  ASP88      -0.1960
     64  CA        54.7210   -7.3760  -15.2010 C.3    88  ASP88       0.1840
     65  C         55.3190   -8.7020  -14.7820 C.2    88  ASP88       0.2622
     66  O         54.7430   -9.4010  -13.9450 O.2    88  ASP88      -0.2715
     67  CB        54.8970   -6.3630  -14.0780 C.3    88  ASP88       0.1450
     68  CG        54.6630   -4.9400  -14.5300 C.2    88  ASP88       0.3671
     69  OD1       55.1460   -4.5690  -15.6200 O.co2  88  ASP88      -0.2456
     70  OD2       54.0080   -4.1830  -13.7800 O.co2  88  ASP88      -0.2456
     71  N         56.4650   -9.0440  -15.3660 N.am   89  PHE89      -0.1960
     72  CA        57.0970  -10.3420  -15.1520 C.3    89  PHE89       0.1771
     73  C         57.7450  -10.4540  -13.7910 C.2    89  PHE89       0.2620
     74  O         58.4130   -9.5180  -13.3350 O.2    89  PHE89      -0.2715
     75  CB        58.1460  -10.6080  -16.2280 C.3    89  PHE89       0.0574
     76  CG        58.7690  -11.9700  -16.1410 C.ar   89  PHE89      -0.0200
     77  CD1       58.0630  -13.0950  -16.5320 C.ar   89  PHE89      -0.0042
     78  CD2       60.0630  -12.1310  -15.6750 C.ar   89  PHE89      -0.0042
     79  CE1       58.6390  -14.3540  -16.4630 C.ar   89  PHE89      -0.0003
     80  CE2       60.6400  -13.3940  -15.5960 C.ar   89  PHE89      -0.0003
     81  CZ        59.9280  -14.5020  -15.9890 C.ar   89  PHE89      -0.0000
     82  N         57.5390  -11.6110  -13.1600 N.am   90  CYS90      -0.1954
     83  CA        58.1640  -11.9590  -11.8830 C.3    90  CYS90       0.1843
     84  C         59.0030  -13.2100  -12.0800 C.2    90  CYS90       0.2625
     85  O         58.4620  -14.2800  -12.3580 O.2    90  CYS90      -0.2714
     86  CB        57.1030  -12.2420  -10.8190 C.3    90  CYS90       0.0997
     87  SG        55.9000  -10.9170  -10.5580 S.3    90  CYS90      -0.0797
     88  N         60.3170  -13.0820  -11.9280 N.am   91  GLU91      -0.1963
     89  CA        61.2310  -14.1710  -12.2720 C.3    91  GLU91       0.1733
     90  C         61.0800  -15.4470  -11.4370 C.2    91  GLU91       0.2616
     91  O         61.2730  -16.5480  -11.9540 O.2    91  GLU91      -0.2715
     92  CB        62.6850  -13.6970  -12.2330 C.3    91  GLU91       0.0429
     93  CG        63.6550  -14.6690  -12.8810 C.3    91  GLU91       0.1163
     94  CD        65.1000  -14.2750  -12.6610 C.2    91  GLU91       0.3649
     95  OE1       65.3550  -13.0770  -12.4030 O.co2  91  GLU91      -0.2457
     96  OE2       65.9780  -15.1620  -12.7430 O.co2  91  GLU91      -0.2457
     97  N         60.7380  -15.3060  -10.1600 N.am   92  HIS92      -0.1959
     98  CA        60.6820  -16.4600   -9.2600 C.3    92  HIS92       0.1787
     99  C         59.2870  -16.7800   -8.7500 C.2    92  HIS92       0.2620
    100  O         58.4220  -15.9090   -8.6740 O.2    92  HIS92      -0.2715
    101  CB        61.6020  -16.2420   -8.0570 C.3    92  HIS92       0.0785
    102  CG        63.0140  -15.9250   -8.4330 C.ar   92  HIS92       0.0821
    103  ND1       63.5390  -14.6530   -8.3460 N.ar   92  HIS92      -0.2267
    104  CD2       64.0060  -16.7100   -8.9150 C.ar   92  HIS92       0.1154
    105  CE1       64.7960  -14.6680   -8.7510 C.ar   92  HIS92       0.1986
    106  NE2       65.1020  -15.9050   -9.1050 N.ar   92  HIS92      -0.2212
    107  N         59.0720  -18.0430   -8.4030 N.am   93  ASP93      -0.1971
    108  CA        57.9240  -18.3940   -7.5800 C.3    93  ASP93       0.1709
    109  C         58.4320  -19.0640   -6.3040 C.2    93  ASP93       0.2293
    110  O         59.4500  -19.7500   -6.3160 O.2    93  ASP93      -0.2864
    111  CB        56.9130  -19.2690   -8.3310 C.3    93  ASP93       0.1436
    112  CG        57.3750  -20.6960   -8.4810 C.2    93  ASP93       0.3671
    113  OD1       58.5990  -20.9080   -8.5950 O.co2  93  ASP93      -0.2456
    114  OD2       56.5170  -21.6060   -8.4900 O.co2  93  ASP93      -0.2456
    115  N         49.0220  -20.8300   -1.7800 N.3   135  LYS135     -0.1245
    116  CA        50.0000  -21.9060   -1.8310 C.3   135  LYS135      0.1561
    117  C         51.2890  -21.3530   -2.4000 C.2   135  LYS135      0.2260
    118  O         51.2830  -20.3320   -3.0790 O.2   135  LYS135     -0.2867
    119  CB        49.5070  -23.0610   -2.6900 C.3   135  LYS135      0.0271
    120  CG        49.4040  -22.7310   -4.1750 C.3   135  LYS135      0.0035
    121  CD        48.7200  -23.8610   -4.9370 C.3   135  LYS135      0.0206
    122  CE        48.6150  -23.5530   -6.4170 C.3   135  LYS135      0.1093
    123  NZ        47.6760  -24.4770   -7.1070 N.3   135  LYS135     -0.1314
    124  N         53.1510  -21.9730   -4.8870 N.3   137  ALA137     -0.1231
    125  CA        53.2810  -21.7590   -6.3260 C.3   137  ALA137      0.1694
    126  C         52.6220  -20.4540   -6.7880 C.2   137  ALA137      0.2592
    127  O         52.8710  -19.9780   -7.9010 O.2   137  ALA137     -0.2718
    128  CB        52.7320  -22.9510   -7.0910 C.3   137  ALA137      0.0304
    129  N         51.7960  -19.8770   -5.9200 N.am  138  ASN138     -0.1974
    130  CA        51.0840  -18.6460   -6.2370 C.3   138  ASN138      0.1688
    131  C         51.6770  -17.3980   -5.5690 C.2   138  ASN138      0.2292
    132  O         51.1520  -16.2900   -5.7090 O.2   138  ASN138     -0.2864
    133  CB        49.6010  -18.7920   -5.8900 C.3   138  ASN138      0.1181
    134  CG        48.8520  -19.6330   -6.9050 C.2   138  ASN138      0.2629
    135  OD1       49.2780  -19.7620   -8.0520 O.2   138  ASN138     -0.2716
    136  ND2       47.7330  -20.2100   -6.4900 N.am  138  ASN138     -0.0877
    137  N         54.8080  -15.0760   -5.8470 N.3   140  LEU140     -0.1245
    138  CA        55.8800  -14.8370   -6.7930 C.3   140  LEU140      0.1561
    139  C         56.8220  -13.8150   -6.1830 C.2   140  LEU140      0.2260
    140  O         56.4520  -13.0960   -5.2440 O.2   140  LEU140     -0.2867
    141  CB        55.3480  -14.3290   -8.1410 C.3   140  LEU140      0.0270
    142  CG        54.2240  -15.0840   -8.8580 C.3   140  LEU140      0.0019
    143  CD1       53.9480  -14.4520  -10.2080 C.3   140  LEU140      0.0001
    144  CD2       54.5600  -16.5280   -9.0420 C.3   140  LEU140      0.0001
    145  N         49.7410  -13.8200   -6.6500 N.3   150  ALA150     -0.1231
    146  CA        49.3520  -14.0530   -8.0380 C.3   150  ALA150      0.1694
    147  C         48.3190  -15.1620   -8.2200 C.2   150  ALA150      0.2592
    148  O         48.0300  -15.9130   -7.2960 O.2   150  ALA150     -0.2718
    149  CB        50.5800  -14.3400   -8.8850 C.3   150  ALA150      0.0304
    150  N         47.7880  -15.2500   -9.4380 N.am  151  ASP151     -0.1974
    151  CA        46.7820  -16.2440   -9.8210 C.3   151  ASP151      0.1709
    152  C         45.4710  -16.0510   -9.0740 C.2   151  ASP151      0.2293
    153  O         45.2430  -16.6640   -8.0350 O.2   151  ASP151     -0.2864
    154  CB        47.2970  -17.6780   -9.6470 C.3   151  ASP151      0.1436
    155  CG        46.5570  -18.6750  -10.5290 C.2   151  ASP151      0.3671
    156  OD1       45.4970  -18.3130  -11.0830 O.co2 151  ASP151     -0.2456
    157  OD2       47.0330  -19.8200  -10.6770 O.co2 151  ASP151     -0.2456
@<TRIPOS>BOND
     1    38    39    2
     2    38    37    1
     3    36    37    1
     4    26    27    2
     5    26    25    1
     6    37    40    1
     7    24    25    1
     8     1     2    1
     9    33    34    2
    10    33    32    1
    11    25    28    1
    12    32    31    1
    13    32    35    1
    14    40    41    1
    15     7     5    1
    16    12    11    2
    17     2     5    1
    18     2     3    1
    19    52    53    1
    20    41    42    1
    21    28    29    1
    22    28    30    1
    23     9     3   am
    24     9    10    1
    25    55    54    2
    26     5     6    1
    27     6     8    1
    28    11    10    1
    29     3     4    2
    30    16    15    2
    31    15    14    1
    32    77    79   ar
    33    77    76   ar
    34    79    81   ar
    35    54    53    1
    36    54    63   am
    37    53    56    1
    38    75    76    1
    39    75    72    1
    40    42    43    1
    41    76    78   ar
    42    59    61   ar
    43    59    57   ar
    44    81    80   ar
    45    61    62   ar
    46    22    20   ar
    47    22    23   ar
    48    78    80   ar
    49    69    68   ar
    50    20    18   ar
    51    63    64    1
    52    43    44    1
    53    56    57    1
    54    71    72    1
    55    71    65   am
    56    13    14    1
    57    14    17    1
    58    57    58   ar
    59    64    65    1
    60    64    67    1
    61    72    73    1
    62    23    21   ar
    63    62    60   ar
    64    65    66    2
    65    18    17    1
    66    18    19   ar
    67    68    67    1
    68    68    70   ar
    69    58    60   ar
    70    21    19   ar
    71    73    74    2
    72    73    82   am
    73    82    83    1
    74    93    94    1
    75    93    92    1
    76    96    94   ar
    77    94    95   ar
    78    85    84    2
    79    89    92    1
    80    89    88    1
    81    89    90    1
    82    84    88   am
    83    84    83    1
    84    91    90    2
    85    83    86    1
    86    90    97   am
    87   156   155   ar
    88    51    49    1
    89    86    87    1
    90   157   155   ar
    91   155   154    1
    92   143   142    1
    93    50    49    1
    94    97    98    1
    95    47    48    2
    96    47    46    1
    97   151   154    1
    98   151   150    1
    99   151   152    1
   100    49    46    1
   101   150   147   am
   102    98    99    1
   103    98   101    1
   104    46    45    1
   105   106   104   ar
   106   106   105   ar
   107   152   153    2
   108   144   142    1
   109   104   102   ar
   110   149   146    1
   111   142   141    1
   112   105   103   ar
   113    99   100    2
   114    99   107   am
   115   113   112   ar
   116   114   112   ar
   117   112   111    1
   118   102   103   ar
   119   102   101    1
   120   107   108    1
   121   111   108    1
   122   147   146    1
   123   147   148    2
   124   141   138    1
   125   135   134    2
   126   146   145    1
   127   127   126    2
   128   108   109    1
   129   123   122    1
   130   128   125    1
   131   134   136   am
   132   134   133    1
   133   138   139    1
   134   138   137    1
   135   126   125    1
   136   126   129   am
   137   122   121    1
   138   125   124    1
   139   110   109    2
   140   130   129    1
   141   130   133    1
   142   130   131    1
   143   139   140    2
   144   132   131    2
   145   121   120    1
   146   120   119    1
   147   118   117    2
   148   119   116    1
   149   117   116    1
   150   116   115    1
