@<TRIPOS>MOLECULE
tmp/3blsB00.pdb
 91 84 0 0 0
SMALL
GASTEIGER

@<TRIPOS>ATOM
      1  N         76.7930    1.4300   30.1560 N.3    61  SER61      -0.1217
      2  CA        75.5340    1.9740   29.5970 C.3    61  SER61       0.1889
      3  C         74.5720    0.9480   29.0430 C.2    61  SER61       0.2288
      4  O         73.4090    1.2270   28.8010 O.2    61  SER61      -0.2866
      5  CB        75.7470    3.0780   28.5870 C.3    61  SER61       0.2089
      6  OG        76.1240    4.3650   29.1650 O.3    61  SER61      -0.2183
      7  N         72.0120   12.7850   25.4480 N.3   147  TYR147     -0.1241
      8  CA        72.3660   11.6050   26.1600 C.3   147  TYR147      0.1605
      9  C         72.8830   11.9710   27.5820 C.2   147  TYR147      0.2264
     10  O         73.7880   12.7220   27.6860 O.2   147  TYR147     -0.2867
     11  CB        73.4660   10.9330   25.3890 C.3   147  TYR147      0.0534
     12  CG        73.7620    9.5590   25.9420 C.ar  147  TYR147     -0.0201
     13  CD1       72.8940    8.5040   25.6890 C.ar  147  TYR147     -0.0009
     14  CD2       74.8940    9.3200   26.7130 C.ar  147  TYR147     -0.0009
     15  CE1       73.1370    7.2430   26.2170 C.ar  147  TYR147      0.0417
     16  CE2       75.1730    8.0540   27.2190 C.ar  147  TYR147      0.0417
     17  CZ        74.2810    7.0130   26.9640 C.ar  147  TYR147      0.1957
     18  OH        74.5070    5.7500   27.4470 O.3   147  TYR147     -0.2866
     19  N         81.5010    9.1200   19.8170 N.3   286  ASN286     -0.1240
     20  CA        81.1930    9.9940   20.9320 C.3   286  ASN286      0.1653
     21  C         80.8080   11.4570   20.6520 C.2   286  ASN286      0.2266
     22  O         79.7960   11.9490   21.1300 O.2   286  ASN286     -0.2867
     23  CB        82.0590    9.7220   22.1500 C.3   286  ASN286      0.1155
     24  CG        81.5010    8.5160   22.8940 C.2   286  ASN286      0.2627
     25  OD1       82.1340    7.9130   23.7860 O.2   286  ASN286     -0.2716
     26  ND2       80.2520    8.1720   22.5550 N.am  286  ASN286     -0.0877
     27  N         77.4610   10.7840   19.0990 N.3   289  ALA289     -0.1231
     28  CA        76.5590   10.1650   20.0630 C.3   289  ALA289      0.1694
     29  C         76.3360   11.0260   21.3020 C.2   289  ALA289      0.2591
     30  O         75.2830   10.9770   21.9440 O.2   289  ALA289     -0.2718
     31  CB        77.1540    8.8480   20.5170 C.3   289  ALA289      0.0304
     32  N         77.3450   11.7750   21.7070 N.am  290  LEU290     -0.1980
     33  CA        77.1390   12.5490   22.9050 C.3   290  LEU290      0.1596
     34  C         76.6540   13.9710   22.6780 C.2   290  LEU290      0.2287
     35  O         76.3770   14.6960   23.6060 O.2   290  LEU290     -0.2864
     36  CB        78.2770   12.4560   23.9290 C.3   290  LEU290      0.0297
     37  CG        78.6630   10.9990   24.2460 C.3   290  LEU290      0.0022
     38  CD1       79.8740   11.0120   25.1620 C.3   290  LEU290      0.0001
     39  CD2       77.5320   10.2120   24.9460 C.3   290  LEU290      0.0001
     40  N         72.3530   -0.8720   21.4600 N.3   312  LYS312     -0.1231
     41  CA        72.9450   -0.0460   22.5160 C.3   312  LYS312      0.1693
     42  C         74.4290   -0.4070   22.7710 C.2   312  LYS312      0.2593
     43  O         74.7770   -1.5750   22.9420 O.2   312  LYS312     -0.2718
     44  CB        72.2330   -0.2350   23.8410 C.3   312  LYS312      0.0285
     45  CG        72.6980    0.7650   24.8890 C.3   312  LYS312      0.0035
     46  CD        72.2310    2.1920   24.5920 C.3   312  LYS312      0.0206
     47  CE        72.6580    3.1520   25.7030 C.3   312  LYS312      0.1093
     48  NZ        74.0860    3.4240   25.5670 N.3   312  LYS312     -0.1314
     49  N         75.2820    0.6320   22.8630 N.am  313  THR313     -0.1939
     50  CA        76.6930    0.4940   23.2200 C.3   313  THR313      0.2028
     51  C         76.8040    0.8850   24.6810 C.2   313  THR313      0.2643
     52  O         75.9520    1.5910   25.2030 O.2   313  THR313     -0.2714
     53  CB        77.4900    1.5960   22.5280 C.3   313  THR313      0.1808
     54  OG1       76.6910    2.6930   22.8770 O.3   313  THR313     -0.2208
     55  CG2       77.4780    1.4600   21.0070 C.3   313  THR313      0.0379
     56  N         77.8860    0.5040   25.3030 N.am  314  GLY314     -0.1939
     57  CA        78.0730    0.9530   26.6500 C.3   314  GLY314      0.2014
     58  C         79.5560    0.7760   27.0040 C.2   314  GLY314      0.2638
     59  O         80.2900   -0.0200   26.3720 O.2   314  GLY314     -0.2714
     60  N         79.9820    1.4820   28.0440 N.am  315  ALA315     -0.1977
     61  CA        81.3330    1.3700   28.4910 C.3   315  ALA315      0.1597
     62  C         81.4510    1.8150   29.9090 C.2   315  ALA315      0.2287
     63  O         80.6930    2.6230   30.3450 O.2   315  ALA315     -0.2864
     64  CB        82.1690    2.3510   27.6630 C.3   315  ALA315      0.0319
     65  N         87.8250   -0.7580   27.2000 N.3   340  ASN340     -0.1240
     66  CA        86.9790    0.1780   26.5660 C.3   340  ASN340      0.1653
     67  C         87.6580    0.6600   25.2350 C.2   340  ASN340      0.2266
     68  O         88.6750    1.3610   25.1650 O.2   340  ASN340     -0.2867
     69  CB        86.7150    1.3230   27.5390 C.3   340  ASN340      0.1155
     70  CG        85.9330    2.4670   26.9300 C.2   340  ASN340      0.2627
     71  OD1       85.3500    2.3470   25.8490 O.2   340  ASN340     -0.2716
     72  ND2       85.9350    3.6050   27.6060 N.am  340  ASN340     -0.0877
     73  N         83.9090    2.9920   19.8440 N.3   343  ASN343     -0.1240
     74  CA        82.5950    2.5830   19.4830 C.3   343  ASN343      0.1653
     75  C         82.4410    2.0160   18.0950 C.2   343  ASN343      0.2266
     76  O         81.9110    0.9220   17.8880 O.2   343  ASN343     -0.2867
     77  CB        81.5530    3.6820   19.6510 C.3   343  ASN343      0.1155
     78  CG        81.0840    3.8140   21.0800 C.2   343  ASN343      0.2627
     79  OD1       80.8960    2.8130   21.7560 O.2   343  ASN343     -0.2716
     80  ND2       80.9190    5.0250   21.5560 N.am  343  ASN343     -0.0877
     81  N         83.2720   -1.4390   17.3390 N.3   346  ARG346     -0.1245
     82  CA        82.2750   -2.3890   17.8280 C.3   346  ARG346      0.1563
     83  C         81.2220   -2.6030   16.8010 C.2   346  ARG346      0.2260
     84  O         80.9230   -3.7630   16.4810 O.2   346  ARG346     -0.2867
     85  CB        81.5600   -1.8850   19.0800 C.3   346  ARG346      0.0307
     86  CG        82.4640   -1.8990   20.2840 C.3   346  ARG346      0.0489
     87  CD        81.9540   -0.9720   21.3590 C.3   346  ARG346      0.2205
     88  NE        82.9940   -0.2620   22.1380 N.pl3 346  ARG346     -0.0865
     89  CZ        82.6720    0.2440   23.3330 C.cat 346  ARG346      0.5346
     90  NH1       81.4560    0.0330   23.7850 N.pl3 346  ARG346      0.1354
     91  NH2       83.5470    0.9310   24.0790 N.pl3 346  ARG346      0.1354
@<TRIPOS>BOND
     1    84    83    2
     2    83    82    1
     3    81    82    1
     4    82    85    1
     5    76    75    2
     6    75    74    1
     7    85    86    1
     8    27    28    1
     9    74    77    1
    10    74    73    1
    11    77    78    1
    12    19    20    1
    13    28    31    1
    14    28    29    1
    15    86    87    1
    16    21    20    1
    17    21    22    2
    18    20    23    1
    19    55    53    1
    20    78    80   am
    21    78    79    2
    22    29    32   am
    23    29    30    2
    24    87    88    1
    25    40    41    1
    26    32    33    1
    27    88    89    2
    28    23    24    1
    29    41    42    1
    30    41    44    1
    31    53    54    1
    32    53    50    1
    33    26    24   am
    34    34    33    1
    35    34    35    2
    36    42    49   am
    37    42    43    2
    38    49    50    1
    39    24    25    2
    40    33    36    1
    41    50    51    1
    42    89    90    1
    43    89    91    1
    44    44    45    1
    45    36    37    1
    46    37    39    1
    47    37    38    1
    48    46    45    1
    49    46    47    1
    50    51    52    2
    51    51    56   am
    52    68    67    2
    53    67    66    1
    54    56    57    1
    55    11    12    1
    56    11     8    1
    57     7     8    1
    58    48    47    1
    59    13    12   ar
    60    13    15   ar
    61    71    70    2
    62    12    14   ar
    63     8     9    1
    64    15    17   ar
    65    59    58    2
    66    66    65    1
    67    66    69    1
    68    57    58    1
    69    14    16   ar
    70    70    69    1
    71    70    72   am
    72    17    16   ar
    73    17    18    1
    74    58    60   am
    75     9    10    2
    76    64    61    1
    77    60    61    1
    78    61    62    1
    79     5     6    1
    80     5     2    1
    81     4     3    2
    82     3     2    1
    83     2     1    1
    84    62    63    2
