@<TRIPOS>MOLECULE
tmp/3bluA00.pdb
 109 104 0 0 0
SMALL
GASTEIGER

@<TRIPOS>ATOM
      1  N         22.6250   42.5850   79.5800 N.3    43  PHE43      -0.1241
      2  CA        23.3520   43.1110   78.4270 C.3    43  PHE43       0.1605
      3  C         23.0100   44.5950   78.3250 C.2    43  PHE43       0.2264
      4  O         21.8400   44.9620   78.1930 O.2    43  PHE43      -0.2867
      5  CB        22.9220   42.3830   77.1480 C.3    43  PHE43       0.0534
      6  CG        23.2950   40.9220   77.1250 C.ar   43  PHE43      -0.0203
      7  CD1       24.6320   40.5310   77.0780 C.ar   43  PHE43      -0.0042
      8  CD2       22.3090   39.9360   77.1540 C.ar   43  PHE43      -0.0042
      9  CE1       24.9800   39.1770   77.0600 C.ar   43  PHE43      -0.0003
     10  CE2       22.6490   38.5790   77.1370 C.ar   43  PHE43      -0.0003
     11  CZ        23.9840   38.1990   77.0890 C.ar   43  PHE43      -0.0000
     12  N         20.4600   45.5510   75.5570 N.3    46  ILE46      -0.1245
     13  CA        19.1860   44.8480   75.4540 C.3    46  ILE46       0.1561
     14  C         18.4370   45.3130   76.6900 C.2    46  ILE46       0.2260
     15  O         18.5340   44.7130   77.7570 O.2    46  ILE46      -0.2867
     16  CB        19.3830   43.3250   75.4830 C.3    46  ILE46       0.0252
     17  CG1       20.3590   42.9230   74.3700 C.3    46  ILE46       0.0019
     18  CG2       18.0330   42.6210   75.3080 C.3    46  ILE46       0.0019
     19  CD1       20.4550   41.4270   74.1260 C.3    46  ILE46       0.0001
     20  N         21.8730   29.4750   71.4470 N.3   170  ASP170     -0.1225
     21  CA        21.6250   30.9050   71.3360 C.3   170  ASP170      0.1805
     22  C         21.8410   31.4340   69.9160 C.2   170  ASP170      0.2597
     23  O         22.6910   30.9380   69.1740 O.2   170  ASP170     -0.2718
     24  CB        22.5470   31.6470   72.3060 C.3   170  ASP170      0.1424
     25  CG        22.1510   33.0900   72.5060 C.2   170  ASP170      0.3668
     26  OD1       22.9420   33.8360   73.1170 O.co2 170  ASP170     -0.2456
     27  OD2       21.0490   33.4750   72.0620 O.co2 170  ASP170     -0.2456
     28  N         21.0580   32.4450   69.5540 N.am  171  GLN171     -0.1979
     29  CA        21.1430   33.0850   68.2460 C.3   171  GLN171      0.1601
     30  C         20.9250   32.1740   67.0410 C.2   171  GLN171      0.2287
     31  O         21.5050   32.3830   65.9710 O.2   171  GLN171     -0.2864
     32  CB        22.4770   33.8270   68.1240 C.3   171  GLN171      0.0394
     33  CG        22.5760   35.0240   69.0630 C.3   171  GLN171      0.0908
     34  CD        23.8910   35.7660   68.9350 C.2   171  GLN171      0.2608
     35  OE1       24.9460   35.2560   69.3120 O.2   171  GLN171     -0.2717
     36  NE2       23.8350   36.9710   68.3900 N.am  171  GLN171     -0.0878
     37  N         15.0050   33.4580   78.0440 N.3   217  CYS217     -0.1221
     38  CA        16.2100   32.6640   77.8130 C.3   217  CYS217      0.1808
     39  C         17.3430   33.4720   78.4110 C.2   217  CYS217      0.2601
     40  O         17.2330   33.9090   79.5550 O.2   217  CYS217     -0.2717
     41  CB        16.4800   32.2960   76.3540 C.3   217  CYS217      0.0970
     42  SG        15.2730   32.7770   75.1490 S.3   217  CYS217     -0.0800
     43  N         18.4220   33.6880   77.6680 N.am  218  ARG218     -0.1965
     44  CA        19.5160   34.4690   78.2290 C.3   218  ARG218      0.1729
     45  C         19.1970   35.9650   78.1570 C.2   218  ARG218      0.2616
     46  O         19.1310   36.6260   79.1870 O.2   218  ARG218     -0.2715
     47  CB        20.8470   34.1500   77.5310 C.3   218  ARG218      0.0348
     48  CG        22.0300   34.8780   78.1530 C.3   218  ARG218      0.0492
     49  CD        23.3830   34.4040   77.6150 C.3   218  ARG218      0.2205
     50  NE        24.4810   35.1130   78.2730 N.pl3 218  ARG218     -0.0865
     51  CZ        25.7380   35.1300   77.8350 C.cat 218  ARG218      0.5346
     52  NH1       26.0720   34.4720   76.7290 N.pl3 218  ARG218      0.1354
     53  NH2       26.6590   35.8160   78.4950 N.pl3 218  ARG218      0.1354
     54  N         18.9880   36.5000   76.9550 N.am  219  ALA219     -0.1963
     55  CA        18.6570   37.9220   76.8120 C.3   219  ALA219      0.1728
     56  C         17.1510   38.1170   76.6950 C.2   219  ALA219      0.2617
     57  O         16.6340   39.1750   77.0470 O.2   219  ALA219     -0.2715
     58  CB        19.3460   38.5190   75.5910 C.3   219  ALA219      0.0334
     59  N         16.4490   37.0980   76.2030 N.am  220  GLY220     -0.1940
     60  CA        15.0000   37.1970   76.0670 C.3   220  GLY220      0.2014
     61  C         14.5510   38.0250   74.8730 C.2   220  GLY220      0.2639
     62  O         13.5600   38.7620   74.9540 O.2   220  GLY220     -0.2714
     63  N         15.2750   37.9120   73.7590 N.am  221  VAL221     -0.1963
     64  CA        14.9260   38.6610   72.5550 C.3   221  VAL221      0.1727
     65  C         15.0360   37.8580   71.2630 C.2   221  VAL221      0.2617
     66  O         14.7430   38.3740   70.1910 O.2   221  VAL221     -0.2715
     67  CB        15.8040   39.9430   72.4110 C.3   221  VAL221      0.0290
     68  CG1       15.4950   40.9030   73.5380 C.3   221  VAL221      0.0023
     69  CG2       17.3000   39.5730   72.4140 C.3   221  VAL221      0.0023
     70  N         15.4280   36.5910   71.3570 N.am  222  GLY222     -0.1940
     71  CA        15.5840   35.7910   70.1510 C.3   222  GLY222      0.2014
     72  C         14.7460   34.5370   70.1840 C.2   222  GLY222      0.2639
     73  O         13.6640   34.4820   69.5990 O.2   222  GLY222     -0.2714
     74  N         15.2520   33.5240   70.8730 N.am  223  ARG223     -0.1963
     75  CA        14.5240   32.2750   70.9900 C.3   223  ARG223      0.1729
     76  C         13.1910   32.6070   71.6470 C.2   223  ARG223      0.2616
     77  O         12.1500   32.0420   71.2930 O.2   223  ARG223     -0.2715
     78  CB        15.3250   31.2960   71.8440 C.3   223  ARG223      0.0348
     79  CG        16.6360   30.8700   71.2020 C.3   223  ARG223      0.0492
     80  CD        17.5610   30.1810   72.1990 C.3   223  ARG223      0.2205
     81  NE        18.1410   31.1350   73.1400 N.pl3 223  ARG223     -0.0865
     82  CZ        19.1880   30.8820   73.9180 C.cat 223  ARG223      0.5346
     83  NH1       19.7770   29.6920   73.8740 N.pl3 223  ARG223      0.1354
     84  NH2       19.6580   31.8260   74.7260 N.pl3 223  ARG223      0.1354
     85  N         13.2430   33.5490   72.5860 N.am  224  THR224     -0.1951
     86  CA        12.0700   34.0010   73.3290 C.3   224  THR224      0.1897
     87  C         11.0460   34.6140   72.3970 C.2   224  THR224      0.2313
     88  O          9.8580   34.2850   72.4580 O.2   224  THR224     -0.2863
     89  CB        12.4400   35.0790   74.3860 C.3   224  THR224      0.1794
     90  OG1       13.2400   34.4920   75.4160 O.3   224  THR224     -0.2208
     91  CG2       11.1900   35.6720   75.0170 C.3   224  THR224      0.0378
     92  N         15.6640   38.5540   67.1910 N.3   260  GLN260     -0.1245
     93  CA        17.0610   38.8950   66.9540 C.3   260  GLN260      0.1566
     94  C         17.6950   38.5420   65.6130 C.2   260  GLN260      0.2260
     95  O         18.2700   39.4110   64.9600 O.2   260  GLN260     -0.2867
     96  CB        17.9000   38.2930   68.0750 C.3   260  GLN260      0.0367
     97  CG        19.3330   38.8100   68.1530 C.3   260  GLN260      0.0905
     98  CD        20.0920   38.1670   69.2870 C.2   260  GLN260      0.2608
     99  OE1       21.0880   38.7010   69.7730 O.2   260  GLN260     -0.2717
    100  NE2       19.6280   37.0060   69.7140 N.am  260  GLN260     -0.0878
    101  N         15.5320   33.5510   62.6840 N.3   264  GLN264     -0.1245
    102  CA        14.4120   33.4370   63.6080 C.3   264  GLN264      0.1566
    103  C         13.1820   34.0780   62.9720 C.2   264  GLN264      0.2260
    104  O         12.0590   33.6140   63.1600 O.2   264  GLN264     -0.2867
    105  CB        14.7600   34.1010   64.9430 C.3   264  GLN264      0.0367
    106  CG        15.9730   33.4710   65.6350 C.3   264  GLN264      0.0905
    107  CD        16.4070   34.2320   66.8830 C.2   264  GLN264      0.2608
    108  OE1       16.3680   35.4620   66.9170 O.2   264  GLN264     -0.2717
    109  NE2       16.8390   33.5020   67.9040 N.am  264  GLN264     -0.0878
@<TRIPOS>BOND
     1   101   102    1
     2   103   104    2
     3   103   102    1
     4   102   105    1
     5   105   106    1
     6    95    94    2
     7    94    93    1
     8   106   107    1
     9    31    30    2
    10   107   108    2
    11   107   109   am
    12    93    92    1
    13    93    96    1
    14    30    29    1
    15    96    97    1
    16    32    29    1
    17    32    33    1
    18    97    98    1
    19    29    28    1
    20    36    34   am
    21    34    33    1
    22    34    35    2
    23    23    22    2
    24    98   100   am
    25    98    99    2
    26    28    22   am
    27    73    72    2
    28    22    21    1
    29    71    72    1
    30    71    70    1
    31    72    74   am
    32    66    65    2
    33    74    75    1
    34    75    76    1
    35    75    78    1
    36    79    78    1
    37    79    80    1
    38    65    70   am
    39    65    64    1
    40    77    76    2
    41    21    20    1
    42    21    24    1
    43    76    85   am
    44    27    25   ar
    45    80    81    1
    46    24    25    1
    47    87    88    2
    48    87    86    1
    49    67    69    1
    50    67    64    1
    51    67    68    1
    52    25    26   ar
    53    64    63    1
    54    85    86    1
    55    81    82    2
    56    86    89    1
    57    63    61   am
    58    83    82    1
    59    82    84    1
    60    19    17    1
    61    17    16    1
    62    89    91    1
    63    89    90    1
    64    61    62    2
    65    61    60    1
    66    42    41    1
    67    18    16    1
    68    13    16    1
    69    13    12    1
    70    13    14    1
    71    58    55    1
    72    60    59    1
    73    59    56   am
    74    41    38    1
    75    14    15    2
    76    56    55    1
    77    56    57    2
    78    52    51    1
    79    55    54    1
    80    54    45   am
    81     9     7   ar
    82     9    11   ar
    83     7     6   ar
    84    11    10   ar
    85     6     5    1
    86     6     8   ar
    87    10     8   ar
    88     5     2    1
    89    47    48    1
    90    47    44    1
    91    49    48    1
    92    49    50    1
    93    43    44    1
    94    43    39   am
    95    38    37    1
    96    38    39    1
    97    51    50    2
    98    51    53    1
    99    45    44    1
   100    45    46    2
   101     4     3    2
   102     3     2    1
   103    39    40    2
   104     2     1    1
