@<TRIPOS>MOLECULE
tmp/3blwM01.pdb
 112 107 0 0 0
SMALL
GASTEIGER

@<TRIPOS>ATOM
      1  N        -16.0250  -25.3520   26.1540 N.3    23  VAL23      -0.1245
      2  CA       -16.2840  -25.3150   27.5850 C.3    23  VAL23       0.1561
      3  C        -15.0230  -25.0090   28.3560 C.2    23  VAL23       0.2260
      4  O        -15.0420  -24.9610   29.5830 O.2    23  VAL23      -0.2867
      5  CB       -16.8310  -26.6490   28.1040 C.3    23  VAL23       0.0252
      6  CG1      -18.0670  -27.0510   27.3150 C.3    23  VAL23       0.0019
      7  CG2      -15.7680  -27.7260   28.0400 C.3    23  VAL23       0.0019
      8  N        -14.8660  -24.4890   32.4150 N.3    27  ILE27      -0.1245
      9  CA       -14.2600  -25.6010   33.1300 C.3    27  ILE27       0.1561
     10  C        -12.9680  -25.1640   33.8760 C.2    27  ILE27       0.2260
     11  O        -12.6050  -25.7410   34.9100 O.2    27  ILE27      -0.2867
     12  CB       -14.0340  -26.8000   32.1430 C.3    27  ILE27       0.0252
     13  CG1      -14.2380  -28.1350   32.8460 C.3    27  ILE27       0.0019
     14  CG2      -12.6760  -26.7220   31.4440 C.3    27  ILE27       0.0019
     15  CD1      -13.9300  -29.3420   31.9660 C.3    27  ILE27       0.0001
     16  N        -17.3700  -40.8280   30.4310 N.3   243  GLY243     -0.1210
     17  CA       -17.2900  -39.7900   29.4260 C.3   243  GLY243      0.1940
     18  C        -16.0710  -38.9030   29.5890 C.2   243  GLY243      0.2454
     19  O        -15.2980  -39.0470   30.5420 O.2   243  GLY243     -0.2732
     20  N        -15.8950  -37.9660   28.6520 N.am  244  PRO244     -0.2717
     21  CA       -14.7170  -37.1010   28.5560 C.3   244  PRO244      0.1535
     22  C        -14.5800  -36.1550   29.7360 C.2   244  PRO244      0.2599
     23  O        -13.5330  -35.5320   29.8990 O.2   244  PRO244     -0.2715
     24  CB       -14.9830  -36.2920   27.2770 C.3   244  PRO244      0.0310
     25  CG       -16.0150  -37.0580   26.5330 C.3   244  PRO244      0.0237
     26  CD       -16.8680  -37.6800   27.5880 C.3   244  PRO244      0.0939
     27  N        -15.6270  -36.0450   30.5430 N.am  245  GLY245     -0.1955
     28  CA       -15.6450  -35.1000   31.6380 C.3   245  GLY245      0.1869
     29  C        -15.0880  -35.6730   32.9210 C.2   245  GLY245      0.2309
     30  O        -15.0080  -34.9670   33.9250 O.2   245  GLY245     -0.2863
     31  N        -11.6480  -33.2240   24.3920 N.3   265  HIS265     -0.1226
     32  CA       -12.8150  -32.7510   23.6600 C.3   265  HIS265      0.1752
     33  C        -13.1360  -31.2980   24.0250 C.2   265  HIS265      0.2596
     34  O        -13.0330  -30.9050   25.1890 O.2   265  HIS265     -0.2718
     35  CB       -14.0050  -33.6650   23.9260 C.3   265  HIS265      0.0759
     36  CG       -13.8850  -35.0040   23.2670 C.ar  265  HIS265      0.0818
     37  ND1      -14.1130  -35.1910   21.9180 N.ar  265  HIS265     -0.2268
     38  CD2      -13.5440  -36.2180   23.7640 C.ar  265  HIS265      0.1154
     39  CE1      -13.9250  -36.4660   21.6170 C.ar  265  HIS265      0.1986
     40  NE2      -13.5760  -37.1100   22.7180 N.ar  265  HIS265     -0.2212
     41  N        -13.5180  -30.5040   23.0290 N.am  266  VAL266     -0.1966
     42  CA       -13.6660  -29.0550   23.1970 C.3   266  VAL266      0.1727
     43  C        -15.0220  -28.6280   23.7630 C.2   266  VAL266      0.2617
     44  O        -15.1230  -27.5910   24.4230 O.2   266  VAL266     -0.2715
     45  CB       -13.4720  -28.3130   21.8620 C.3   266  VAL266      0.0290
     46  CG1      -13.0180  -26.9060   22.1160 C.3   266  VAL266      0.0023
     47  CG2      -12.4740  -29.0380   20.9830 C.3   266  VAL266      0.0023
     48  N        -16.0610  -29.4180   23.4910 N.am  267  GLY267     -0.1940
     49  CA       -17.4050  -29.0960   23.9310 C.3   267  GLY267      0.2014
     50  C        -17.9370  -27.8160   23.3110 C.2   267  GLY267      0.2639
     51  O        -18.7210  -27.1090   23.9320 O.2   267  GLY267     -0.2714
     52  N        -17.5150  -27.5210   22.0850 N.am  268  LEU268     -0.1963
     53  CA       -17.9730  -26.3200   21.3900 C.3   268  LEU268      0.1728
     54  C        -19.4850  -26.0790   21.4840 C.2   268  LEU268      0.2616
     55  O        -19.9290  -24.9560   21.7090 O.2   268  LEU268     -0.2715
     56  CB       -17.5620  -26.3520   19.9180 C.3   268  LEU268      0.0311
     57  CG       -16.2260  -25.7270   19.5450 C.3   268  LEU268      0.0022
     58  CD1      -16.2590  -25.3840   18.0820 C.3   268  LEU268      0.0001
     59  CD2      -15.9550  -24.4790   20.3700 C.3   268  LEU268      0.0001
     60  N        -20.2640  -27.1410   21.2990 N.am  269  ASP269     -0.1957
     61  CA       -21.7240  -27.0570   21.2650 C.3   269  ASP269      0.1840
     62  C        -22.3850  -26.5070   22.5440 C.2   269  ASP269      0.2621
     63  O        -23.4230  -25.8440   22.4760 O.2   269  ASP269     -0.2715
     64  CB       -22.3040  -28.4310   20.9400 C.3   269  ASP269      0.1450
     65  CG       -22.0570  -29.4480   22.0490 C.2   269  ASP269      0.3671
     66  OD1      -20.8980  -29.5710   22.5070 O.co2 269  ASP269     -0.2456
     67  OD2      -23.0200  -30.1330   22.4630 O.co2 269  ASP269     -0.2456
     68  N        -21.7950  -26.7890   23.7030 N.am  270  ILE270     -0.1977
     69  CA       -22.3560  -26.3330   24.9730 C.3   270  ILE270      0.1596
     70  C        -21.5640  -25.1890   25.6350 C.2   270  ILE270      0.2287
     71  O        -21.5300  -25.0700   26.8690 O.2   270  ILE270     -0.2864
     72  CB       -22.5000  -27.4990   25.9600 C.3   270  ILE270      0.0276
     73  CG1      -21.1420  -28.1030   26.2760 C.3   270  ILE270      0.0022
     74  CG2      -23.3680  -28.5650   25.3780 C.3   270  ILE270      0.0022
     75  CD1      -21.2140  -29.2360   27.2630 C.3   270  ILE270      0.0001
     76  N        -21.6960  -27.8050   31.4150 N.3   276  ALA276     -0.1231
     77  CA       -20.4860  -28.6200   31.3390 C.3   276  ALA276      0.1694
     78  C        -20.0390  -29.2430   32.6640 C.2   276  ALA276      0.2592
     79  O        -20.4030  -28.7840   33.7420 O.2   276  ALA276     -0.2718
     80  CB       -19.3640  -27.8060   30.7460 C.3   276  ALA276      0.0304
     81  N        -19.2250  -30.2890   32.5660 N.am  277  ASN277     -0.1974
     82  CA       -18.7230  -31.0020   33.7340 C.3   277  ASN277      0.1688
     83  C        -17.2340  -30.7500   33.9360 C.2   277  ASN277      0.2292
     84  O        -16.4200  -31.0350   33.0530 O.2   277  ASN277     -0.2864
     85  CB       -18.9830  -32.4990   33.5740 C.3   277  ASN277      0.1181
     86  CG       -18.3800  -33.3240   34.6870 C.2   277  ASN277      0.2629
     87  OD1      -17.7130  -32.8040   35.5700 O.2   277  ASN277     -0.2716
     88  ND2      -18.6150  -34.6280   34.6450 N.am  277  ASN277     -0.0877
     89  N        -13.1380  -33.4800   34.9460 N.3   280  ALA280     -0.1245
     90  CA       -11.9200  -33.6640   34.1660 C.3   280  ALA280      0.1562
     91  C        -10.9040  -32.6200   34.5760 C.2   280  ALA280      0.2260
     92  O         -9.8560  -32.9410   35.1280 O.2   280  ALA280     -0.2867
     93  CB       -12.2140  -33.5460   32.6890 C.3   280  ALA280      0.0290
     94  N        -24.9580  -32.5970   34.5990 N.3   317  ARG317     -0.1231
     95  CA       -25.8400  -33.2260   33.5870 C.3   317  ARG317      0.1694
     96  C        -25.4120  -34.5910   33.0340 C.2   317  ARG317      0.2592
     97  O        -26.1580  -35.5620   33.1180 O.2   317  ARG317     -0.2718
     98  CB       -26.0740  -32.2610   32.4170 C.3   317  ARG317      0.0321
     99  CG       -26.7340  -32.9060   31.2130 C.3   317  ARG317      0.0489
    100  CD       -26.1470  -32.3930   29.8890 C.3   317  ARG317      0.2205
    101  NE       -26.9700  -31.3730   29.2310 N.pl3 317  ARG317     -0.0865
    102  CZ       -26.6810  -30.8220   28.0510 C.cat 317  ARG317      0.5346
    103  NH1      -25.5820  -31.1880   27.3980 N.pl3 317  ARG317      0.1354
    104  NH2      -27.4850  -29.9010   27.5210 N.pl3 317  ARG317      0.1354
    105  N        -24.2150  -34.6460   32.4610 N.am  318  ASP318     -0.1974
    106  CA       -23.7100  -35.8200   31.7420 C.3   318  ASP318      0.1709
    107  C        -23.4670  -37.0850   32.5790 C.2   318  ASP318      0.2293
    108  O        -23.3330  -38.1750   32.0210 O.2   318  ASP318     -0.2864
    109  CB       -22.4000  -35.4510   31.0670 C.3   318  ASP318      0.1436
    110  CG       -21.4540  -34.7390   32.0110 C.2   318  ASP318      0.3671
    111  OD1      -20.6290  -35.4300   32.6550 O.co2 318  ASP318     -0.2456
    112  OD2      -21.5680  -33.4930   32.1220 O.co2 318  ASP318     -0.2456
@<TRIPOS>BOND
     1    58    57    1
     2    57    56    1
     3    57    59    1
     4    56    53    1
     5    64    61    1
     6    64    65    1
     7    47    45    1
     8    61    60    1
     9    61    62    1
    10    60    54   am
    11    53    54    1
    12    53    52    1
    13    54    55    2
    14    39    37   ar
    15    39    40   ar
    16    45    46    1
    17    45    42    1
    18    37    36   ar
    19    65    67   ar
    20    65    66   ar
    21    52    50   am
    22    63    62    2
    23    62    68   am
    24    40    38   ar
    25    41    42    1
    26    41    33   am
    27    42    43    1
    28    36    38   ar
    29    36    35    1
    30    50    49    1
    31    50    51    2
    32    48    43   am
    33    48    49    1
    34    32    35    1
    35    32    33    1
    36    32    31    1
    37    68    69    1
    38    43    44    2
    39    33    34    2
    40    69    70    1
    41    69    72    1
    42    74    72    1
    43    70    71    2
    44    72    73    1
    45     1     2    1
    46    73    75    1
    47    25    24    1
    48    25    26    1
    49    24    21    1
    50     6     5    1
    51   103   102    1
    52   104   102    1
    53     2     5    1
    54     2     3    1
    55    26    20    1
    56     7     5    1
    57   102   101    2
    58     3     4    2
    59    21    20    1
    60    21    22    1
    61    20    18   am
    62   101   100    1
    63    17    18    1
    64    17    16    1
    65    18    19    2
    66    22    23    2
    67    22    27   am
    68   100    99    1
    69    27    28    1
    70    80    77    1
    71   109   106    1
    72   109   110    1
    73    99    98    1
    74    77    76    1
    75    77    78    1
    76    14    12    1
    77    28    29    1
    78   106   105    1
    79   106   107    1
    80    15    13    1
    81   110   112   ar
    82   110   111   ar
    83   108   107    2
    84    12    13    1
    85    12     9    1
    86     8     9    1
    87    98    95    1
    88   105    96   am
    89    81    78   am
    90    81    82    1
    91    78    79    2
    92    93    90    1
    93    29    30    2
    94    96    97    2
    95    96    95    1
    96    84    83    2
    97     9    10    1
    98    85    82    1
    99    85    86    1
   100    95    94    1
   101    82    83    1
   102    10    11    2
   103    90    91    1
   104    90    89    1
   105    91    92    2
   106    88    86   am
   107    86    87    2
