@<TRIPOS>MOLECULE
tmp/3blwM00.pdb
 108 101 0 0 0
SMALL
GASTEIGER

@<TRIPOS>ATOM
      1  N         -8.7570  -27.3910   25.9540 N.3    70  LEU70      -0.1231
      2  CA        -8.4020  -27.7260   24.5880 C.3    70  LEU70       0.1693
      3  C         -8.7230  -26.5580   23.6810 C.2    70  LEU70       0.2592
      4  O         -9.6810  -25.8180   23.9240 O.2    70  LEU70      -0.2718
      5  CB        -9.1560  -28.9750   24.1270 C.3    70  LEU70       0.0284
      6  CG        -8.5510  -30.3340   24.4730 C.3    70  LEU70       0.0019
      7  CD1       -7.1870  -30.4540   23.8040 C.3    70  LEU70       0.0001
      8  CD2       -8.4640  -30.5750   25.9800 C.3    70  LEU70       0.0001
      9  N         -7.9110  -26.3800   22.6480 N.am   71  TRP71      -0.1976
     10  CA        -8.2270  -25.4250   21.6070 C.3    71  TRP71       0.1640
     11  C         -9.0400  -26.1420   20.5490 C.2    71  TRP71       0.2290
     12  O         -9.1000  -27.3660   20.5330 O.2    71  TRP71      -0.2864
     13  CB        -6.9550  -24.8860   20.9830 C.3    71  TRP71       0.0576
     14  CG        -6.3380  -23.7280   21.7100 C.ar   71  TRP71       0.0006
     15  CD1       -6.9250  -22.5320   21.9880 C.ar   71  TRP71       0.0946
     16  CD2       -4.9920  -23.6380   22.2070 C.ar   71  TRP71       0.0152
     17  NE1       -6.0390  -21.7080   22.6460 N.ar   71  TRP71      -0.2442
     18  CE2       -4.8460  -22.3670   22.7920 C.ar   71  TRP71       0.0810
     19  CE3       -3.8980  -24.5170   22.2210 C.ar   71  TRP71       0.0012
     20  CZ2       -3.6610  -21.9530   23.3820 C.ar   71  TRP71       0.0191
     21  CZ3       -2.7250  -24.1080   22.8090 C.ar   71  TRP71       0.0001
     22  CH2       -2.6130  -22.8400   23.3800 C.ar   71  TRP71       0.0015
     23  N         -9.8080  -27.1480   16.5220 N.3    73  THR73      -0.1218
     24  CA        -9.0470  -27.3430   15.2950 C.3    73  THR73       0.1862
     25  C         -9.9400  -27.5160   14.0740 C.2    73  THR73       0.2287
     26  O        -10.8170  -28.3810   14.0480 O.2    73  THR73      -0.2866
     27  CB        -8.1270  -28.5490   15.3980 C.3    73  THR73       0.1770
     28  OG1       -7.5220  -28.5580   16.6920 O.3    73  THR73      -0.2211
     29  CG2       -7.0510  -28.4770   14.3360 C.3    73  THR73       0.0375
     30  N         -3.5200  -27.9630   14.2830 N.3    82  SER82      -0.1217
     31  CA        -3.8400  -28.1800   15.6980 C.3    82  SER82       0.1889
     32  C         -3.5510  -27.0360   16.6560 C.2    82  SER82       0.2288
     33  O         -4.4610  -26.5010   17.2890 O.2    82  SER82      -0.2866
     34  CB        -3.1610  -29.4310   16.2330 C.3    82  SER82       0.2089
     35  OG        -3.3930  -29.5420   17.6270 O.3    82  SER82      -0.2183
     36  N         -2.8010  -27.3280   19.3940 N.3    84  ASN84      -0.1225
     37  CA        -2.6790  -28.0880   20.6120 C.3    84  ASN84       0.1785
     38  C         -1.3800  -28.8710   20.5080 C.2    84  ASN84       0.2597
     39  O         -0.5940  -28.8820   21.4490 O.2    84  ASN84      -0.2718
     40  CB        -3.8660  -29.0260   20.7850 C.3    84  ASN84       0.1169
     41  CG        -5.0340  -28.3520   21.4370 C.2    84  ASN84       0.2627
     42  OD1       -4.8820  -27.6930   22.4480 O.2    84  ASN84      -0.2716
     43  ND2       -6.2050  -28.5180   20.8720 N.am   84  ASN84      -0.0877
     44  N         -1.1550  -29.5060   19.3510 N.am   85  VAL85      -0.1980
     45  CA         0.1000  -30.2270   19.0750 C.3    85  VAL85       0.1595
     46  C          1.2510  -29.2520   18.9100 C.2    85  VAL85       0.2287
     47  O          2.3580  -29.5260   19.3500 O.2    85  VAL85      -0.2864
     48  CB         0.0460  -31.1030   17.7980 C.3    85  VAL85       0.0276
     49  CG1       -1.1770  -31.9920   17.8010 C.3    85  VAL85       0.0022
     50  CG2        0.0900  -30.2320   16.5450 C.3    85  VAL85       0.0022
     51  N          2.7120  -28.5890   22.2150 N.3    88  ARG88      -0.1245
     52  CA         3.5120  -29.7000   22.7130 C.3    88  ARG88       0.1563
     53  C          4.8180  -29.8900   21.9660 C.2    88  ARG88       0.2260
     54  O          5.8640  -30.0990   22.5770 O.2    88  ARG88      -0.2867
     55  CB         2.7220  -30.9870   22.6160 C.3    88  ARG88       0.0307
     56  CG         1.4470  -30.9400   23.3790 C.3    88  ARG88       0.0489
     57  CD         0.4990  -32.0080   22.9180 C.3    88  ARG88       0.2205
     58  NE        -0.8490  -31.6930   23.3520 N.pl3  88  ARG88      -0.0865
     59  CZ        -1.9230  -32.3320   22.9230 C.cat  88  ARG88       0.5346
     60  NH1       -1.7880  -33.3250   22.0540 N.pl3  88  ARG88       0.1354
     61  NH2       -3.1180  -31.9720   23.3690 N.pl3  88  ARG88       0.1354
     62  N          0.7520  -41.9170   25.5620 N.3   119  ARG119     -0.1245
     63  CA         1.0300  -41.7630   24.1470 C.3   119  ARG119      0.1563
     64  C          2.1560  -40.7750   23.8850 C.2   119  ARG119      0.2260
     65  O          2.3970  -39.8650   24.6740 O.2   119  ARG119     -0.2867
     66  CB        -0.2180  -41.3300   23.3980 C.3   119  ARG119      0.0307
     67  CG        -0.4730  -39.8650   23.4270 C.3   119  ARG119      0.0489
     68  CD        -1.5500  -39.5050   22.4450 C.3   119  ARG119      0.2205
     69  NE        -1.4190  -38.1210   22.0250 N.pl3 119  ARG119     -0.0865
     70  CZ        -2.3160  -37.4580   21.3000 C.cat 119  ARG119      0.5346
     71  NH1       -3.4420  -38.0490   20.9080 N.pl3 119  ARG119      0.1354
     72  NH2       -2.0870  -36.1920   20.9760 N.pl3 119  ARG119      0.1354
     73  N          1.2660  -37.7840   13.8840 N.3   126  PHE126     -0.1241
     74  CA         1.0940  -36.3860   14.2690 C.3   126  PHE126      0.1605
     75  C          2.2910  -35.5810   13.8130 C.2   126  PHE126      0.2264
     76  O          2.5010  -34.4530   14.2680 O.2   126  PHE126     -0.2867
     77  CB         0.9650  -36.2570   15.7880 C.3   126  PHE126      0.0534
     78  CG        -0.4300  -36.4160   16.2950 C.ar  126  PHE126     -0.0203
     79  CD1       -1.2820  -37.3560   15.7420 C.ar  126  PHE126     -0.0042
     80  CD2       -0.8930  -35.6330   17.3380 C.ar  126  PHE126     -0.0042
     81  CE1       -2.5740  -37.5090   16.2050 C.ar  126  PHE126     -0.0003
     82  CE2       -2.1900  -35.7790   17.8060 C.ar  126  PHE126     -0.0003
     83  CZ        -3.0310  -36.7230   17.2390 C.ar  126  PHE126     -0.0000
     84  N         -5.0580  -41.7450   20.6770 N.3   231  THR231     -0.1218
     85  CA        -6.3220  -41.0460   20.4960 C.3   231  THR231      0.1862
     86  C         -7.4660  -42.0400   20.4720 C.2   231  THR231      0.2287
     87  O         -8.5450  -41.7830   20.9990 O.2   231  THR231     -0.2866
     88  CB        -6.3320  -40.2960   19.1640 C.3   231  THR231      0.1770
     89  OG1       -5.4650  -39.1630   19.2640 O.3   231  THR231     -0.2211
     90  CG2       -7.7360  -39.8380   18.8140 C.3   231  THR231      0.0375
     91  N         -9.7190  -34.9080   25.8450 N.3   264  ARG264     -0.1245
     92  CA        -9.4090  -34.0980   24.6690 C.3   264  ARG264      0.1563
     93  C        -10.6280  -33.8360   23.7970 C.2   264  ARG264      0.2260
     94  O        -10.6330  -34.1750   22.6120 O.2   264  ARG264     -0.2867
     95  CB        -8.3000  -34.7440   23.8200 C.3   264  ARG264      0.0307
     96  CG        -6.9030  -34.0990   23.9400 C.3   264  ARG264      0.0489
     97  CD        -5.9910  -34.7650   24.9780 C.3   264  ARG264      0.2205
     98  NE        -5.9190  -36.2170   24.8290 N.pl3 264  ARG264     -0.0865
     99  CZ        -5.1050  -36.8480   23.9860 C.cat 264  ARG264      0.5346
    100  NH1       -4.2970  -36.1500   23.2030 N.pl3 264  ARG264      0.1354
    101  NH2       -5.1030  -38.1760   23.9190 N.pl3 264  ARG264      0.1354
    102  N        -13.5180  -30.5040   23.0290 N.3   266  VAL266     -0.1245
    103  CA       -13.6660  -29.0550   23.1970 C.3   266  VAL266      0.1561
    104  C        -15.0220  -28.6280   23.7630 C.2   266  VAL266      0.2260
    105  O        -15.1230  -27.5910   24.4230 O.2   266  VAL266     -0.2867
    106  CB       -13.4720  -28.3130   21.8620 C.3   266  VAL266      0.0252
    107  CG1      -13.0180  -26.9060   22.1160 C.3   266  VAL266      0.0019
    108  CG2      -12.4740  -29.0380   20.9830 C.3   266  VAL266      0.0019
@<TRIPOS>BOND
     1    75    76    2
     2    75    74    1
     3    73    74    1
     4    26    25    2
     5    25    24    1
     6    74    77    1
     7    30    31    1
     8    29    27    1
     9    24    27    1
    10    24    23    1
    11    27    28    1
    12    31    34    1
    13    31    32    1
    14    79    81   ar
    15    79    78   ar
    16    77    78    1
    17    81    83   ar
    18    34    35    1
    19    78    80   ar
    20    50    48    1
    21    32    33    2
    22    83    82   ar
    23    80    82   ar
    24    48    49    1
    25    48    45    1
    26    90    88    1
    27    46    45    1
    28    46    47    2
    29    45    44    1
    30    88    89    1
    31    88    85    1
    32    44    38   am
    33    36    37    1
    34    86    85    1
    35    86    87    2
    36    85    84    1
    37    38    37    1
    38    38    39    2
    39    12    11    2
    40    11    10    1
    41    37    40    1
    42    40    41    1
    43    43    41   am
    44    71    70    1
    45    72    70    1
    46   108   106    1
    47    13    10    1
    48    13    14    1
    49    70    69    2
    50    41    42    2
    51    10     9    1
    52    14    15   ar
    53    14    16   ar
    54   106   107    1
    55   106   103    1
    56    53    54    2
    57    53    52    1
    58    15    17   ar
    59    69    68    1
    60    60    59    1
    61    16    19   ar
    62    16    18   ar
    63    51    52    1
    64    19    21   ar
    65    68    67    1
    66    94    93    2
    67    55    52    1
    68    55    56    1
    69    17    18   ar
    70     9     3   am
    71    18    20   ar
    72    21    22   ar
    73    57    58    1
    74    57    56    1
    75    59    58    2
    76    59    61    1
    77   102   103    1
    78   103   104    1
    79   100    99    1
    80    22    20   ar
    81    66    67    1
    82    66    63    1
    83     3     4    2
    84     3     2    1
    85   104   105    2
    86    93    92    1
    87     7     6    1
    88    95    96    1
    89    95    92    1
    90    64    63    1
    91    64    65    2
    92   101    99    1
    93    96    97    1
    94    99    98    2
    95     5     6    1
    96     5     2    1
    97    63    62    1
    98     6     8    1
    99     2     1    1
   100    92    91    1
   101    98    97    1
