@<TRIPOS>MOLECULE
tmp/3bm1B00.pdb
 108 107 0 0 0
SMALL
GASTEIGER

@<TRIPOS>ATOM
      1  N         12.1050   -4.9550    8.6010 N.3    35  ARG35      -0.1231
      2  CA        12.8940   -5.7100    9.5670 C.3    35  ARG35       0.1694
      3  C         14.3320   -5.1950    9.5850 C.2    35  ARG35       0.2592
      4  O         15.2400   -5.8500   10.0950 O.2    35  ARG35      -0.2718
      5  CB        12.8700   -7.2090    9.2460 C.3    35  ARG35       0.0321
      6  CG        11.5000   -7.8630    9.4280 C.3    35  ARG35       0.0489
      7  CD        10.9210   -7.5850   10.8120 C.3    35  ARG35       0.2205
      8  NE        11.9010   -7.8440   11.8630 N.pl3  35  ARG35      -0.0865
      9  CZ        12.2930   -6.9420   12.7550 C.cat  35  ARG35       0.5346
     10  NH1       11.7820   -5.7160   12.7330 N.pl3  35  ARG35       0.1354
     11  NH2       13.2150   -7.2560   13.6530 N.pl3  35  ARG35       0.1354
     12  N         14.5310   -4.0100    9.0170 N.am   36  ALA36      -0.1966
     13  CA        15.8480   -3.3910    8.9850 C.3    36  ALA36       0.1713
     14  C         16.2130   -2.9340   10.3980 C.2    36  ALA36       0.2458
     15  O         15.3310   -2.7220   11.2340 O.2    36  ALA36      -0.2730
     16  CB        15.8390   -2.2010    8.0380 C.3    36  ALA36       0.0333
     17  N         17.5190   -2.7960   10.6890 N.am   37  PRO37      -0.2716
     18  CA        17.9270   -2.3560   12.0250 C.3    37  PRO37       0.1536
     19  C         17.2630   -1.0100   12.2910 C.2    37  PRO37       0.2599
     20  O         17.1150   -0.2000   11.3790 O.2    37  PRO37      -0.2715
     21  CB        19.4490   -2.2820   11.9200 C.3    37  PRO37       0.0310
     22  CG        19.6740   -1.9630   10.4640 C.3    37  PRO37       0.0237
     23  CD        18.6750   -2.8650    9.7780 C.3    37  PRO37       0.0939
     24  N         16.8880   -0.7760   13.5440 N.am   38  ASP38      -0.1958
     25  CA        16.1470    0.4240   13.9140 C.3    38  ASP38       0.1840
     26  C         16.4650    0.8560   15.3520 C.2    38  ASP38       0.2622
     27  O         15.9630    0.2690   16.3110 O.2    38  ASP38      -0.2715
     28  CB        14.6630    0.0750   13.7470 C.3    38  ASP38       0.1450
     29  CG        13.7240    1.1940   14.1220 C.2    38  ASP38       0.3671
     30  OD1       14.1750    2.3240   14.4040 O.co2  38  ASP38      -0.2456
     31  OD2       12.5030    0.9200   14.1230 O.co2  38  ASP38      -0.2456
     32  N         17.2940    1.8870   15.5010 N.am   39  HIS39      -0.1959
     33  CA        17.6690    2.3490   16.8380 C.3    39  HIS39       0.1787
     34  C         16.4640    2.9520   17.5510 C.2    39  HIS39       0.2620
     35  O         15.8640    3.9110   17.0660 O.2    39  HIS39      -0.2715
     36  CB        18.8090    3.3760   16.7600 C.3    39  HIS39       0.0785
     37  CG        19.4820    3.6400   18.0760 C.ar   39  HIS39       0.0821
     38  ND1       20.5850    4.4580   18.1980 N.ar   39  HIS39      -0.2267
     39  CD2       19.2180    3.1810   19.3240 C.ar   39  HIS39       0.1154
     40  CE1       20.9720    4.4900   19.4610 C.ar   39  HIS39       0.1986
     41  NE2       20.1590    3.7240   20.1650 N.ar   39  HIS39      -0.2212
     42  N         16.1200    2.3650   18.6950 N.am   40  LYS40      -0.1963
     43  CA        14.9920    2.7890   19.5200 C.3    40  LYS40       0.1728
     44  C         13.6430    2.4950   18.8660 C.2    40  LYS40       0.2616
     45  O         12.6270    3.0990   19.2170 O.2    40  LYS40      -0.2715
     46  CB        15.0900    4.2880   19.8560 C.3    40  LYS40       0.0311
     47  CG        16.2850    4.6660   20.7240 C.3    40  LYS40       0.0038
     48  CD        16.2770    3.9190   22.0430 C.3    40  LYS40       0.0206
     49  CE        17.4580    4.3130   22.9210 C.3    40  LYS40       0.1093
     50  NZ        17.4220    3.5880   24.2140 N.3    40  LYS40      -0.1314
     51  N         13.6410    1.5610   17.9190 N.am   41  SER41      -0.1950
     52  CA        12.4270    1.1580   17.2110 C.3    41  SER41       0.1924
     53  C         11.5600    2.3310   16.7690 C.2    41  SER41       0.2314
     54  O         10.3690    2.3840   17.0780 O.2    41  SER41      -0.2863
     55  CB        11.5870    0.2240   18.0870 C.3    41  SER41       0.2116
     56  OG        12.2830   -0.9710   18.3920 O.3    41  SER41      -0.2180
     57  N         18.5680   10.6580   21.3640 N.3   101  LYS101     -0.1245
     58  CA        19.3090    9.4280   21.5980 C.3   101  LYS101      0.1561
     59  C         19.6020    8.7830   20.2410 C.2   101  LYS101      0.2260
     60  O         20.4400    7.8890   20.1260 O.2   101  LYS101     -0.2867
     61  CB        18.4730    8.4880   22.4710 C.3   101  LYS101      0.0271
     62  CG        19.2470    7.7800   23.5740 C.3   101  LYS101      0.0035
     63  CD        20.1290    6.6670   23.0260 C.3   101  LYS101      0.0206
     64  CE        20.8170    5.9030   24.1540 C.3   101  LYS101      0.1093
     65  NZ        19.8320    5.2960   25.0960 N.3   101  LYS101     -0.1314
     66  N         20.9660   11.0100   11.0570 N.3   105  TRP105     -0.1227
     67  CA        21.6230   10.0720   10.1490 C.3   105  TRP105      0.1737
     68  C         21.3560    8.6020   10.4640 C.2   105  TRP105      0.2595
     69  O         21.3360    7.7740    9.5580 O.2   105  TRP105     -0.2718
     70  CB        23.1430   10.3210   10.0940 C.3   105  TRP105      0.0564
     71  CG        23.8990    9.9360   11.3310 C.ar  105  TRP105      0.0003
     72  CD1       24.1790   10.7290   12.4110 C.ar  105  TRP105      0.0946
     73  CD2       24.4790    8.6590   11.6100 C.ar  105  TRP105      0.0152
     74  NE1       24.9010   10.0270   13.3400 N.ar  105  TRP105     -0.2442
     75  CE2       25.1000    8.7520   12.8780 C.ar  105  TRP105      0.0810
     76  CE3       24.5350    7.4410   10.9120 C.ar  105  TRP105      0.0012
     77  CZ2       25.7710    7.6730   13.4650 C.ar  105  TRP105      0.0191
     78  CZ3       25.2010    6.3670   11.4950 C.ar  105  TRP105      0.0001
     79  CH2       25.8110    6.4910   12.7610 C.ar  105  TRP105      0.0015
     80  N         21.1500    8.2770   11.7360 N.am  106  GLU106     -0.1979
     81  CA        20.8790    6.8980   12.1290 C.3   106  GLU106      0.1602
     82  C         19.5010    6.4430   11.6680 C.2   106  GLU106      0.2287
     83  O         19.2960    5.2670   11.3900 O.2   106  GLU106     -0.2864
     84  CB        20.9940    6.7370   13.6470 C.3   106  GLU106      0.0415
     85  CG        22.3880    7.0160   14.1910 C.3   106  GLU106      0.1163
     86  CD        22.5410    6.6330   15.6570 C.2   106  GLU106      0.3649
     87  OE1       23.6490    6.8090   16.2140 O.co2 106  GLU106     -0.2457
     88  OE2       21.5540    6.1520   16.2550 O.co2 106  GLU106     -0.2457
     89  N         19.7720    5.8840    7.8870 N.3   109  MET109     -0.1230
     90  CA        20.4280    4.6460    7.4950 C.3   109  MET109      0.1702
     91  C         19.5090    3.4380    7.6620 C.2   109  MET109      0.2593
     92  O         19.6170    2.4650    6.9190 O.2   109  MET109     -0.2718
     93  CB        21.7190    4.4650    8.2830 C.3   109  MET109      0.0401
     94  CG        22.8240    3.8330    7.4720 C.3   109  MET109      0.0596
     95  SD        24.3980    4.1700    8.2090 S.3   109  MET109     -0.1393
     96  CE        24.8610    5.6780    7.4060 C.3   109  MET109      0.0692
     97  N         18.6030    3.5150    8.6340 N.am  110  SER110     -0.1952
     98  CA        17.6310    2.4490    8.8840 C.3   110  SER110      0.1924
     99  C         16.7250    2.3400    7.6550 C.2   110  SER110      0.2314
    100  O         16.3970    1.2460    7.1980 O.2   110  SER110     -0.2863
    101  CB        16.7960    2.7860   10.1230 C.3   110  SER110      0.2116
    102  OG        15.8210    1.7910   10.3870 O.3   110  SER110     -0.2180
    103  N         18.6830    0.8760    4.8950 N.3   113  CYS113     -0.1235
    104  CA        18.8010   -0.5680    5.0480 C.3   113  CYS113      0.1677
    105  C         17.5220   -1.2690    4.5790 C.2   113  CYS113      0.2270
    106  O         17.5800   -2.3700    4.0260 O.2   113  CYS113     -0.2867
    107  CB        19.1070   -0.9260    6.5050 C.3   113  CYS113      0.0956
    108  SG        20.8040   -0.5150    7.0360 S.3   113  CYS113     -0.0801
@<TRIPOS>BOND
     1   106   105    2
     2   105   104    1
     3   103   104    1
     4   104   107    1
     5   107   108    1
     6    92    91    2
     7   100    99    2
     8    96    95    1
     9    94    95    1
    10    94    93    1
    11    90    91    1
    12    90    89    1
    13    90    93    1
    14    99    98    1
    15    91    97   am
    16    16    13    1
    17     1     2    1
    18    97    98    1
    19    98   101    1
    20    13    12    1
    21    13    14    1
    22    12     3   am
    23     5     6    1
    24     5     2    1
    25     6     7    1
    26    69    68    2
    27     2     3    1
    28     3     4    2
    29    23    22    1
    30    23    17    1
    31    70    67    1
    32    70    71    1
    33   101   102    1
    34    67    68    1
    35    67    66    1
    36    14    17   am
    37    14    15    2
    38    68    80   am
    39    22    21    1
    40    17    18    1
    41     7     8    1
    42    76    78   ar
    43    76    73   ar
    44    71    73   ar
    45    71    72   ar
    46    20    19    2
    47    83    82    2
    48    78    79   ar
    49    73    75   ar
    50    82    81    1
    51    80    81    1
    52     8     9    2
    53    21    18    1
    54    18    19    1
    55    81    84    1
    56    19    24   am
    57    72    74   ar
    58    10     9    1
    59     9    11    1
    60    79    77   ar
    61    75    74   ar
    62    75    77   ar
    63    24    25    1
    64    84    85    1
    65    28    25    1
    66    28    29    1
    67    25    26    1
    68    29    31   ar
    69    29    30   ar
    70    85    86    1
    71    26    32   am
    72    26    27    2
    73    32    33    1
    74    86    87   ar
    75    86    88   ar
    76    36    33    1
    77    36    37    1
    78    53    54    2
    79    53    52    1
    80    33    34    1
    81    35    34    2
    82    52    51    1
    83    52    55    1
    84    34    42   am
    85    51    44   am
    86    37    38   ar
    87    37    39   ar
    88    55    56    1
    89    38    40   ar
    90    42    43    1
    91    44    45    2
    92    44    43    1
    93    39    41   ar
    94    40    41   ar
    95    43    46    1
    96    46    47    1
    97    60    59    2
    98    59    58    1
    99    47    48    1
   100    57    58    1
   101    58    61    1
   102    48    49    1
   103    61    62    1
   104    49    50    1
   105    63    62    1
   106    63    64    1
   107    64    65    1
