@<TRIPOS>MOLECULE
tmp/3bm4B01.pdb
 168 156 0 0 0
SMALL
GASTEIGER

@<TRIPOS>ATOM
      1  N        -17.1830   21.0570   82.6380 N.3    16  TRP16      -0.1227
      2  CA       -17.4290   20.2310   81.4620 C.3    16  TRP16       0.1737
      3  C        -16.2020   19.5870   80.8470 C.2    16  TRP16       0.2595
      4  O        -16.2870   18.5000   80.2780 O.2    16  TRP16      -0.2718
      5  CB       -18.1370   21.0550   80.3870 C.3    16  TRP16       0.0564
      6  CG       -19.3690   21.7230   80.8800 C.ar   16  TRP16       0.0003
      7  CD1      -19.4800   23.0000   81.3600 C.ar   16  TRP16       0.0946
      8  CD2      -20.6700   21.1440   80.9780 C.ar   16  TRP16       0.0152
      9  NE1      -20.7730   23.2490   81.7510 N.ar   16  TRP16      -0.2442
     10  CE2      -21.5260   22.1260   81.5280 C.ar   16  TRP16       0.0810
     11  CE3      -21.1990   19.8860   80.6580 C.ar   16  TRP16       0.0012
     12  CZ2      -22.8830   21.8890   81.7640 C.ar   16  TRP16       0.0191
     13  CZ3      -22.5470   19.6500   80.8930 C.ar   16  TRP16       0.0001
     14  CH2      -23.3750   20.6490   81.4420 C.ar   16  TRP16       0.0015
     15  N        -15.0640   20.2570   80.9510 N.am   17  VAL17      -0.1980
     16  CA       -13.8360   19.7370   80.3660 C.3    17  VAL17       0.1595
     17  C        -12.6600   19.7920   81.3300 C.2    17  VAL17       0.2287
     18  O        -12.6000   20.6610   82.1960 O.2    17  VAL17      -0.2864
     19  CB       -13.4530   20.5440   79.1080 C.3    17  VAL17       0.0276
     20  CG1      -12.2780   19.8930   78.4100 C.3    17  VAL17       0.0022
     21  CG2      -14.6500   20.6580   78.1770 C.3    17  VAL17       0.0022
     22  N        -13.8660   15.0400   78.4160 N.3    39  ARG39      -0.1245
     23  CA       -15.1210   15.6400   78.8530 C.3    39  ARG39       0.1563
     24  C        -15.4160   15.0570   80.2310 C.2    39  ARG39       0.2260
     25  O        -15.2270   13.8590   80.4570 O.2    39  ARG39      -0.2867
     26  CB       -16.2650   15.3000   77.8870 C.3    39  ARG39       0.0307
     27  CG       -16.3460   16.2120   76.6680 C.3    39  ARG39       0.0489
     28  CD       -17.5420   15.8640   75.7800 C.3    39  ARG39       0.2205
     29  NE       -17.6560   16.7510   74.6200 N.pl3  39  ARG39      -0.0865
     30  CZ       -18.2150   17.9600   74.6440 C.cat  39  ARG39       0.5346
     31  NH1      -18.7240   18.4430   75.7720 N.pl3  39  ARG39       0.1354
     32  NH2      -18.2690   18.6880   73.5360 N.pl3  39  ARG39       0.1354
     33  N        -19.0830    9.5690   74.2040 N.3    48  ASP48      -0.1225
     34  CA       -19.5370   10.8750   74.6840 C.3    48  ASP48       0.1805
     35  C        -20.8860   11.2560   74.0760 C.2    48  ASP48       0.2598
     36  O        -21.7730   11.7560   74.7720 O.2    48  ASP48      -0.2718
     37  CB       -18.5250   11.9740   74.3430 C.3    48  ASP48       0.1424
     38  CG       -17.1970   11.7990   75.0570 C.2    48  ASP48       0.3668
     39  OD1      -16.2490   11.2810   74.4330 O.co2  48  ASP48      -0.2456
     40  OD2      -17.1070   12.1790   76.2460 O.co2  48  ASP48      -0.2456
     41  N        -21.0400   11.0260   72.7740 N.am   49  GLY49      -0.1942
     42  CA       -22.2920   11.3770   72.1290 C.3    49  GLY49       0.2014
     43  C        -22.5250   10.6870   70.8010 C.2    49  GLY49       0.2638
     44  O        -21.9350    9.6480   70.5080 O.2    49  GLY49      -0.2714
     45  N        -23.4190   11.2670   70.0090 N.am   50  VAL50      -0.1977
     46  CA       -23.7480   10.7480   68.6900 C.3    50  VAL50       0.1596
     47  C        -23.8330   11.9000   67.6970 C.2    50  VAL50       0.2287
     48  O        -24.0790   13.0490   68.0790 O.2    50  VAL50      -0.2864
     49  CB       -25.1300   10.0530   68.6710 C.3    50  VAL50       0.0276
     50  CG1      -25.1350    8.8290   69.5850 C.3    50  VAL50       0.0022
     51  CG2      -26.2040   11.0490   69.0990 C.3    50  VAL50       0.0022
     52  N        -25.2300   26.5250   64.2270 N.3    70  GLN70      -0.1245
     53  CA       -25.2740   27.0540   65.5870 C.3    70  GLN70       0.1566
     54  C        -24.0400   27.8810   65.9000 C.2    70  GLN70       0.2260
     55  O        -22.9710   27.6700   65.3230 O.2    70  GLN70      -0.2867
     56  CB       -25.3240   25.9230   66.6160 C.3    70  GLN70       0.0367
     57  CG       -26.3030   24.8070   66.3250 C.3    70  GLN70       0.0905
     58  CD       -26.0710   23.6010   67.2210 C.2    70  GLN70       0.2608
     59  OE1      -26.4540   23.5970   68.3940 O.2    70  GLN70      -0.2717
     60  NE2      -25.4230   22.5780   66.6770 N.am   70  GLN70      -0.0878
     61  N        -20.9900   28.5950   67.9520 N.3    72  ARG72      -0.1245
     62  CA       -20.1380   27.7490   68.7790 C.3    72  ARG72       0.1563
     63  C        -19.0620   28.5840   69.4670 C.2    72  ARG72       0.2260
     64  O        -18.0960   29.0080   68.8310 O.2    72  ARG72      -0.2867
     65  CB       -19.4770   26.6680   67.9140 C.3    72  ARG72       0.0307
     66  CG       -20.4460   25.6320   67.3590 C.3    72  ARG72       0.0489
     67  CD       -21.1050   24.8570   68.4920 C.3    72  ARG72       0.2205
     68  NE       -21.6470   23.5730   68.0570 N.pl3  72  ARG72      -0.0865
     69  CZ       -22.1930   22.6840   68.8790 C.cat  72  ARG72       0.5346
     70  NH1      -22.2730   22.9490   70.1810 N.pl3  72  ARG72       0.1354
     71  NH2      -22.6380   21.5230   68.4060 N.pl3  72  ARG72       0.1354
     72  N        -16.4020   28.0170   71.3360 N.3    74  PRO74      -0.2116
     73  CA       -14.9870   27.6950   71.1170 C.3    74  PRO74       0.1372
     74  C        -14.4680   28.2400   69.7890 C.2    74  PRO74       0.2244
     75  O        -13.3040   28.6430   69.6800 O.2    74  PRO74      -0.2868
     76  CB       -14.9740   26.1670   71.1630 C.3    74  PRO74       0.0268
     77  CG       -16.0960   25.8510   72.1050 C.3    74  PRO74       0.0207
     78  CD       -17.1710   26.8020   71.6540 C.3    74  PRO74       0.0892
     79  N        -23.1150   21.7930   60.9900 N.3    81  GLU81      -0.1245
     80  CA       -22.8030   20.4330   61.4350 C.3    81  GLU81       0.1567
     81  C        -23.9390   19.4320   61.2700 C.2    81  GLU81       0.2260
     82  O        -25.0730   19.7980   60.9660 O.2    81  GLU81      -0.2867
     83  CB       -22.4530   20.4600   62.9250 C.3    81  GLU81       0.0388
     84  CG       -21.4670   21.5240   63.3500 C.3    81  GLU81       0.1160
     85  CD       -21.6060   21.8660   64.8260 C.2    81  GLU81       0.3649
     86  OE1      -21.6180   20.9290   65.6470 O.co2  81  GLU81      -0.2457
     87  OE2      -21.7110   23.0680   65.1650 O.co2  81  GLU81      -0.2457
     88  N        -26.1820   16.6980   66.4370 N.3    84  ALA84      -0.1231
     89  CA       -25.4250   15.8610   67.3650 C.3    84  ALA84       0.1694
     90  C        -25.6700   16.2360   68.8160 C.2    84  ALA84       0.2593
     91  O        -26.1070   17.3410   69.1170 O.2    84  ALA84      -0.2718
     92  CB       -23.9320   15.9660   67.0550 C.3    84  ALA84       0.0304
     93  N        -25.3900   15.3090   69.7230 N.am   85  GLY85      -0.1942
     94  CA       -25.5850   15.6030   71.1320 C.3    85  GLY85       0.2014
     95  C        -24.9190   14.5790   72.0260 C.2    85  GLY85       0.2638
     96  O        -24.4910   13.5220   71.5590 O.2    85  GLY85      -0.2714
     97  N        -24.8220   14.8920   73.3120 N.am   86  LEU86      -0.1977
     98  CA       -24.2140   13.9770   74.2630 C.3    86  LEU86       0.1596
     99  C        -25.2230   12.8850   74.5910 C.2    86  LEU86       0.2287
    100  O        -26.4310   13.1310   74.6340 O.2    86  LEU86      -0.2864
    101  CB       -23.8060   14.7230   75.5410 C.3    86  LEU86       0.0297
    102  CG       -22.7360   15.8070   75.3790 C.3    86  LEU86       0.0022
    103  CD1      -22.5130   16.5070   76.7090 C.3    86  LEU86       0.0001
    104  CD2      -21.4390   15.1870   74.8760 C.3    86  LEU86       0.0001
    105  N        -31.9650   13.4900   69.6700 N.3   100  GLU100     -0.1245
    106  CA       -31.2520   14.7110   69.2980 C.3   100  GLU100      0.1567
    107  C        -31.7480   15.2410   67.9550 C.2   100  GLU100      0.2260
    108  O        -31.9040   16.4480   67.7740 O.2   100  GLU100     -0.2867
    109  CB       -29.7430   14.4510   69.2290 C.3   100  GLU100      0.0388
    110  CG       -29.0920   14.2320   70.5880 C.3   100  GLU100      0.1160
    111  CD       -28.9960   15.5090   71.4100 C.2   100  GLU100      0.3649
    112  OE1      -28.7540   15.4180   72.6320 O.co2 100  GLU100     -0.2457
    113  OE2      -29.1460   16.6030   70.8300 O.co2 100  GLU100     -0.2457
    114  N        -33.2410   18.9650   67.8030 N.3   104  GLU104     -0.1245
    115  CA       -32.5410   19.9580   67.0080 C.3   104  GLU104      0.1567
    116  C        -33.1470   20.3130   65.6540 C.2   104  GLU104      0.2260
    117  O        -32.9380   21.4220   65.1650 O.2   104  GLU104     -0.2867
    118  CB       -31.0800   19.5330   66.8310 C.3   104  GLU104      0.0388
    119  CG       -30.3720   19.3860   68.1690 C.3   104  GLU104      0.1160
    120  CD       -28.8680   19.2670   68.0550 C.2   104  GLU104      0.3649
    121  OE1      -28.2230   19.3250   69.1130 O.co2 104  GLU104     -0.2457
    122  OE2      -28.3240   19.1160   66.9370 O.co2 104  GLU104     -0.2457
    123  N        -13.2220   11.7800   67.7560 N.3   120  MET120     -0.1245
    124  CA       -13.3960   13.1380   67.2330 C.3   120  MET120      0.1570
    125  C        -12.1040   13.8810   66.8930 C.2   120  MET120      0.2261
    126  O        -12.0370   14.5740   65.8820 O.2   120  MET120     -0.2867
    127  CB       -14.1860   13.9740   68.2390 C.3   120  MET120      0.0387
    128  CG       -15.6270   13.5400   68.4200 C.3   120  MET120      0.0595
    129  SD       -16.5470   13.8300   66.9120 S.3   120  MET120     -0.1393
    130  CE       -16.7360   15.6590   67.0110 C.3   120  MET120      0.0692
    131  N        -12.5040   12.1080   73.1690 N.3   127  CYS127     -0.1235
    132  CA       -13.8880   12.2290   72.7350 C.3   127  CYS127      0.1677
    133  C        -14.2710   11.2560   71.6240 C.2   127  CYS127      0.2270
    134  O        -13.5740   11.1480   70.6160 O.2   127  CYS127     -0.2867
    135  CB       -14.1510   13.6650   72.2920 C.3   127  CYS127      0.0956
    136  SG       -13.9250   14.8470   73.6390 S.3   127  CYS127     -0.0801
    137  N        -17.8470    9.3200   69.4710 N.3   129  ILE129     -0.1245
    138  CA       -19.2630    9.3830   69.1410 C.3   129  ILE129      0.1561
    139  C        -19.6340    8.2040   68.2660 C.2   129  ILE129      0.2260
    140  O        -18.7710    7.5210   67.7170 O.2   129  ILE129     -0.2867
    141  CB       -19.6140   10.6460   68.3150 C.3   129  ILE129      0.0252
    142  CG1      -18.8940   10.5820   66.9580 C.3   129  ILE129      0.0019
    143  CG2      -19.2160   11.9000   69.0710 C.3   129  ILE129      0.0019
    144  CD1      -19.2790   11.6820   65.9660 C.3   129  ILE129      0.0001
    145  N        -30.4930   27.0020   76.6810 N.3   153  GLY153     -0.1210
    146  CA       -29.3950   27.7380   76.0820 C.3   153  GLY153      0.1956
    147  C        -28.9960   27.2420   74.7070 C.2   153  GLY153      0.2611
    148  O        -27.8420   27.3850   74.3030 O.2   153  GLY153     -0.2717
    149  N        -29.9440   26.6590   73.9820 N.am  154  GLU154     -0.1979
    150  CA       -29.6600   26.1550   72.6470 C.3   154  GLU154      0.1602
    151  C        -30.4750   26.8970   71.5970 C.2   154  GLU154      0.2287
    152  O        -31.6780   27.1020   71.7590 O.2   154  GLU154     -0.2864
    153  CB       -29.9490   24.6550   72.5750 C.3   154  GLU154      0.0415
    154  CG       -29.1820   23.8420   73.6040 C.3   154  GLU154      0.1163
    155  CD       -29.2350   22.3550   73.3280 C.2   154  GLU154      0.3649
    156  OE1      -30.3520   21.8200   73.1550 O.co2 154  GLU154     -0.2457
    157  OE2      -28.1560   21.7220   73.2840 O.co2 154  GLU154     -0.2457
    158  N        -16.4470   16.4390   59.6350 N.3   184  ARG184     -0.1245
    159  CA       -17.1440   15.1880   59.3310 C.3   184  ARG184      0.1563
    160  C        -18.1500   15.4380   58.2050 C.2   184  ARG184      0.2260
    161  O        -18.3060   14.6170   57.3070 O.2   184  ARG184     -0.2867
    162  CB       -17.8540   14.6670   60.5770 C.3   184  ARG184      0.0307
    163  CG       -16.8900   14.1560   61.6370 C.3   184  ARG184      0.0489
    164  CD       -17.5290   14.1680   63.0050 C.3   184  ARG184      0.2205
    165  NE       -17.7790   15.5340   63.4530 N.pl3 184  ARG184     -0.0865
    166  CZ       -18.6440   15.8610   64.4080 C.cat 184  ARG184      0.5346
    167  NH1      -19.3560   14.9200   65.0200 N.pl3 184  ARG184      0.1354
    168  NH2      -18.8000   17.1320   64.7500 N.pl3 184  ARG184      0.1354
@<TRIPOS>BOND
     1   161   160    2
     2   160   159    1
     3   159   158    1
     4   159   162    1
     5   162   163    1
     6    82    81    2
     7    79    80    1
     8    81    80    1
     9    80    83    1
    10   163   164    1
    11    83    84    1
    12   164   165    1
    13    84    85    1
    14   165   166    2
    15    52    53    1
    16   166   168    1
    17   166   167    1
    18    85    87   ar
    19    85    86   ar
    20   117   116    2
    21    55    54    2
    22    53    54    1
    23    53    56    1
    24   116   115    1
    25   126   125    2
    26   144   142    1
    27    57    56    1
    28    57    58    1
    29    88    89    1
    30    60    58   am
    31   118   115    1
    32   118   119    1
    33   125   124    1
    34   129   130    1
    35   129   128    1
    36   122   120   ar
    37   142   141    1
    38   115   114    1
    39    92    89    1
    40    58    59    2
    41   124   123    1
    42   124   127    1
    43    66    65    1
    44    66    67    1
    45    89    90    1
    46    47    48    2
    47    47    46    1
    48   140   139    2
    49   108   107    2
    50    65    62    1
    51    61    62    1
    52   107   106    1
    53   120   119    1
    54   120   121   ar
    55    68    67    1
    56    68    69    2
    57   127   128    1
    58   139   138    1
    59   141   143    1
    60   141   138    1
    61    71    69    1
    62    49    46    1
    63    49    51    1
    64    49    50    1
    65    46    45    1
    66    62    63    1
    67    90    91    2
    68    90    93   am
    69    64    63    2
    70    69    70    1
    71   138   137    1
    72   109   106    1
    73   109   110    1
    74   106   105    1
    75    75    74    2
    76    93    94    1
    77    74    73    1
    78    45    43   am
    79    44    43    2
    80   110   111    1
    81   134   133    2
    82    43    42    1
    83   113   111   ar
    84    73    76    1
    85    73    72    1
    86    94    95    1
    87    76    77    1
    88    72    78    1
    89   111   112   ar
    90    96    95    2
    91   151   152    2
    92   151   150    1
    93   133   132    1
    94    78    77    1
    95    95    97   am
    96    42    41    1
    97   135   132    1
    98   135   136    1
    99   153   150    1
   100   153   154    1
   101   150   149    1
   102   132   131    1
   103    41    35   am
   104   156   155   ar
   105   157   155   ar
   106    97    98    1
   107   155   154    1
   108    32    30    1
   109   149   147   am
   110    35    34    1
   111    35    36    2
   112    33    34    1
   113    98    99    1
   114    98   101    1
   115   148   147    2
   116    37    34    1
   117    37    38    1
   118    39    38   ar
   119    99   100    2
   120    29    30    2
   121    29    28    1
   122    30    31    1
   123   147   146    1
   124   104   102    1
   125    38    40   ar
   126   102   101    1
   127   102   103    1
   128    28    27    1
   129   146   145    1
   130    27    26    1
   131    26    23    1
   132    21    19    1
   133    20    19    1
   134    22    23    1
   135    23    24    1
   136    19    16    1
   137    24    25    2
   138     4     3    2
   139    16    15    1
   140    16    17    1
   141     5     6    1
   142     5     2    1
   143    11    13   ar
   144    11     8   ar
   145     3    15   am
   146     3     2    1
   147     6     8   ar
   148     6     7   ar
   149    13    14   ar
   150     8    10   ar
   151    17    18    2
   152     7     9   ar
   153    14    12   ar
   154     2     1    1
   155    10     9   ar
   156    10    12   ar
