@<TRIPOS>MOLECULE
tmp/3bm5B01.pdb
 100 94 0 0 0
SMALL
GASTEIGER

@<TRIPOS>ATOM
      1  N        -10.6470   30.4950    4.0240 N.3    57  LYS57      -0.1245
      2  CA       -10.7190   29.1940    4.6760 C.3    57  LYS57       0.1561
      3  C         -9.6790   28.9980    5.7460 C.2    57  LYS57       0.2260
      4  O         -9.7870   28.0760    6.5480 O.2    57  LYS57      -0.2867
      5  CB       -10.5960   28.0660    3.6520 C.3    57  LYS57       0.0271
      6  CG       -11.8310   27.9020    2.8240 C.3    57  LYS57       0.0035
      7  CD       -13.0110   27.8810    3.7470 C.3    57  LYS57       0.0206
      8  CE       -14.0880   27.0180    3.2050 C.3    57  LYS57       0.1093
      9  NZ       -14.8980   27.6400    2.1210 N.3    57  LYS57      -0.1314
     10  N        -13.3140   18.4590    0.5480 N.3    84  THR84      -0.1203
     11  CA       -13.5580   19.8740    0.2830 C.3    84  THR84       0.1994
     12  C        -13.5580   20.3170   -1.1740 C.2    84  THR84       0.2619
     13  O        -13.2580   19.5340   -2.0760 O.2    84  THR84      -0.2717
     14  CB       -12.5010   20.7090    1.0320 C.3    84  THR84       0.1784
     15  OG1      -12.4150   22.0220    0.4660 O.3    84  THR84      -0.2211
     16  CG2      -11.1470   20.0290    0.9410 C.3    84  THR84       0.0376
     17  N        -13.9000   21.5850   -1.3970 N.am   85  SER85      -0.1937
     18  CA       -13.8880   22.1240   -2.7490 C.3    85  SER85       0.2055
     19  C        -12.5470   22.8100   -3.0260 C.2    85  SER85       0.2644
     20  O        -12.3480   23.3920   -4.0970 O.2    85  SER85      -0.2714
     21  CB       -15.0230   23.1220   -2.9630 C.3    85  SER85       0.2130
     22  OG       -14.5820   24.4600   -2.7950 O.3    85  SER85      -0.2179
     23  N        -11.6280   22.7570   -2.0640 N.am   86  GLY86      -0.1939
     24  CA       -10.3320   23.3640   -2.3030 C.3    86  GLY86       0.2014
     25  C         -9.5660   23.9560   -1.1440 C.2    86  GLY86       0.2639
     26  O         -8.7320   23.3000   -0.5210 O.2    86  GLY86      -0.2714
     27  N         -9.8550   25.2190   -0.8690 N.am   87  ASN87      -0.1958
     28  CA        -9.1920   25.9580    0.1840 C.3    87  ASN87       0.1819
     29  C         -9.3270   25.3570    1.5730 C.2    87  ASN87       0.2621
     30  O         -8.3930   25.4290    2.3730 O.2    87  ASN87      -0.2715
     31  CB        -9.6890   27.3930    0.1470 C.3    87  ASN87       0.1195
     32  CG        -9.3880   28.0590   -1.1820 C.2    87  ASN87       0.2630
     33  OD1      -10.1500   28.8940   -1.6560 O.2    87  ASN87      -0.2716
     34  ND2       -8.2630   27.6900   -1.7890 N.am   87  ASN87      -0.0877
     35  N        -10.4710   24.7520    1.8660 N.am   88  THR88      -0.1951
     36  CA       -10.6430   24.1380    3.1700 C.3    88  THR88       0.1897
     37  C         -9.6110   23.0300    3.3320 C.2    88  THR88       0.2313
     38  O         -9.0080   22.8860    4.3970 O.2    88  THR88      -0.2863
     39  CB       -12.0500   23.5600    3.3440 C.3    88  THR88       0.1794
     40  OG1      -12.9920   24.6340    3.4310 O.3    88  THR88      -0.2208
     41  CG2      -12.1300   22.7280    4.6180 C.3    88  THR88       0.0378
     42  N         -5.0910   23.4630   -6.4860 N.3   115  ARG115     -0.1245
     43  CA        -5.4470   23.3430   -5.0760 C.3   115  ARG115      0.1563
     44  C         -5.0130   21.9410   -4.7060 C.2   115  ARG115      0.2260
     45  O         -4.5360   21.6810   -3.6010 O.2   115  ARG115     -0.2867
     46  CB        -6.9550   23.4840   -4.8770 C.3   115  ARG115      0.0307
     47  CG        -7.5530   24.5960   -5.6920 C.3   115  ARG115      0.0489
     48  CD        -8.8550   25.0830   -5.1170 C.3   115  ARG115      0.2205
     49  NE        -9.4190   26.1140   -5.9750 N.pl3 115  ARG115     -0.0865
     50  CZ       -10.3720   26.9610   -5.6060 C.cat 115  ARG115      0.5346
     51  NH1      -10.8770   26.9130   -4.3850 N.pl3 115  ARG115      0.1354
     52  NH2      -10.8240   27.8550   -6.4630 N.pl3 115  ARG115      0.1354
     53  N        -17.1090   20.5510    7.4500 N.3   158  GLN158     -0.1231
     54  CA       -17.2200   21.9950    7.2460 C.3   158  GLN158      0.1698
     55  C        -18.6290   22.5360    7.0030 C.2   158  GLN158      0.2592
     56  O        -18.9590   23.6250    7.4660 O.2   158  GLN158     -0.2718
     57  CB       -16.3150   22.4160    6.0910 C.3   158  GLN158      0.0381
     58  CG       -16.7890   21.9270    4.7300 C.3   158  GLN158      0.0905
     59  CD       -15.8620   22.3420    3.6070 C.2   158  GLN158      0.2608
     60  OE1      -15.4080   23.4830    3.5600 O.2   158  GLN158     -0.2717
     61  NE2      -15.5840   21.4210    2.6890 N.am  158  GLN158     -0.0878
     62  N        -19.4580   21.7900    6.2820 N.am  159  PHE159     -0.1976
     63  CA       -20.8200   22.2350    5.9840 C.3   159  PHE159      0.1639
     64  C        -21.8030   22.1350    7.1460 C.2   159  PHE159      0.2290
     65  O        -22.9240   22.6500    7.0530 O.2   159  PHE159     -0.2864
     66  CB       -21.3830   21.4390    4.8110 C.3   159  PHE159      0.0560
     67  CG       -20.7660   21.7870    3.4940 C.ar  159  PHE159     -0.0200
     68  CD1      -21.1850   22.9170    2.7960 C.ar  159  PHE159     -0.0042
     69  CD2      -19.7750   20.9800    2.9440 C.ar  159  PHE159     -0.0042
     70  CE1      -20.6250   23.2430    1.5700 C.ar  159  PHE159     -0.0003
     71  CE2      -19.2060   21.2920    1.7200 C.ar  159  PHE159     -0.0003
     72  CZ       -19.6330   22.4270    1.0270 C.ar  159  PHE159     -0.0000
     73  N        -20.6020   29.2650    0.1120 N.3   191  GLY191     -0.1210
     74  CA       -20.0930   27.9240   -0.1240 C.3   191  GLY191      0.1956
     75  C        -20.6760   27.0520    0.9760 C.2   191  GLY191      0.2612
     76  O        -21.5890   26.2670    0.7320 O.2   191  GLY191     -0.2717
     77  N        -20.1440   27.1960    2.1870 N.am  192  THR192     -0.1952
     78  CA       -20.6230   26.4780    3.3730 C.3   192  THR192      0.1897
     79  C        -21.5440   27.4580    4.1110 C.2   192  THR192      0.2313
     80  O        -22.3140   27.0700    4.9900 O.2   192  THR192     -0.2863
     81  CB       -19.4620   26.1040    4.3350 C.3   192  THR192      0.1794
     82  OG1      -18.9010   27.3000    4.9010 O.3   192  THR192     -0.2208
     83  CG2      -18.3710   25.3360    3.5950 C.3   192  THR192      0.0378
     84  N        -15.7580   27.4900   -5.5540 N.3   235  GLY235     -0.1210
     85  CA       -15.7730   27.8590   -4.1520 C.3   235  GLY235      0.1956
     86  C        -17.1690   28.0110   -3.5810 C.2   235  GLY235      0.2611
     87  O        -17.3550   27.9690   -2.3660 O.2   235  GLY235     -0.2717
     88  N        -18.1540   28.1930   -4.4550 N.am  236  ILE236     -0.1979
     89  CA       -19.5360   28.3530   -4.0120 C.3   236  ILE236      0.1595
     90  C        -20.4560   27.3990   -4.7680 C.2   236  ILE236      0.2287
     91  O        -19.9890   26.5400   -5.5200 O.2   236  ILE236     -0.2864
     92  CB       -20.0090   29.8060   -4.2150 C.3   236  ILE236      0.0276
     93  CG1      -20.0140   30.1570   -5.7020 C.3   236  ILE236      0.0022
     94  CG2      -19.0650   30.7590   -3.4840 C.3   236  ILE236      0.0022
     95  CD1      -20.6000   31.5200   -5.9990 C.3   236  ILE236      0.0001
     96  N        -22.4760   24.8420   -3.6670 N.3   238  ALA238     -0.1245
     97  CA       -22.2840   23.4560   -3.2480 C.3   238  ALA238      0.1562
     98  C        -23.3430   22.5080   -3.8080 C.2   238  ALA238      0.2260
     99  O        -23.1040   21.3050   -3.9080 O.2   238  ALA238     -0.2867
    100  CB       -22.2720   23.3690   -1.7310 C.3   238  ALA238      0.0290
@<TRIPOS>BOND
     1    42    43    1
     2    52    50    1
     3    95    93    1
     4    49    50    2
     5    49    48    1
     6    93    92    1
     7    47    48    1
     8    47    46    1
     9    50    51    1
    10    84    85    1
    11    91    90    2
    12    43    46    1
    13    43    44    1
    14    90    89    1
    15    44    45    2
    16    88    89    1
    17    88    86   am
    18    92    89    1
    19    92    94    1
    20    85    86    1
    21    20    19    2
    22    99    98    2
    23    98    97    1
    24    96    97    1
    25    86    87    2
    26    97   100    1
    27    19    18    1
    28    19    23   am
    29    21    22    1
    30    21    18    1
    31    18    17    1
    32    24    23    1
    33    24    25    1
    34    13    12    2
    35    34    32   am
    36    33    32    2
    37    17    12   am
    38    32    31    1
    39    12    11    1
    40    25    27   am
    41    25    26    2
    42    27    28    1
    43    74    73    1
    44    74    75    1
    45    31    28    1
    46    28    29    1
    47    11    10    1
    48    11    14    1
    49    15    14    1
    50    76    75    2
    51    16    14    1
    52    75    77   am
    53    72    70   ar
    54    72    71   ar
    55    70    68   ar
    56    29    35   am
    57    29    30    2
    58    71    69   ar
    59    35    36    1
    60     9     8    1
    61    77    78    1
    62    61    59   am
    63    68    67   ar
    64     6     5    1
    65     6     7    1
    66    69    67   ar
    67    36    37    1
    68    36    39    1
    69     8     7    1
    70    37    38    2
    71    39    40    1
    72    39    41    1
    73    78    79    1
    74    78    81    1
    75    67    66    1
    76    60    59    2
    77    83    81    1
    78    59    58    1
    79     5     2    1
    80     1     2    1
    81    79    80    2
    82    81    82    1
    83     2     3    1
    84    58    57    1
    85    66    63    1
    86     3     4    2
    87    63    62    1
    88    63    64    1
    89    57    54    1
    90    62    55   am
    91    55    54    1
    92    55    56    2
    93    65    64    2
    94    54    53    1
