@<TRIPOS>MOLECULE
tmp/3bm5A00.pdb
 153 147 0 0 0
SMALL
GASTEIGER

@<TRIPOS>ATOM
      1  N          4.7370   38.7940   -2.6570 N.3    55  SER55      -0.1202
      2  CA         6.1770   38.7980   -2.8410 C.3    55  SER55       0.2020
      3  C          6.7510   40.1020   -2.3420 C.2    55  SER55       0.2619
      4  O          6.0530   41.1180   -2.2900 O.2    55  SER55      -0.2717
      5  CB         6.5270   38.5760   -4.3090 C.3    55  SER55       0.2103
      6  OG         7.2540   39.6670   -4.8380 O.3    55  SER55      -0.2182
      7  N          8.0270   40.0520   -1.9650 N.am   56  VAL56      -0.1965
      8  CA         8.7550   41.2030   -1.4440 C.3    56  VAL56       0.1727
      9  C          8.8030   42.3070   -2.4780 C.2    56  VAL56       0.2616
     10  O          9.0020   43.4770   -2.1420 O.2    56  VAL56      -0.2715
     11  CB        10.2060   40.8340   -1.0880 C.3    56  VAL56       0.0290
     12  CG1       10.9650   40.4570   -2.3420 C.3    56  VAL56       0.0023
     13  CG2       10.8810   41.9930   -0.3700 C.3    56  VAL56       0.0023
     14  N          8.6200   41.9350   -3.7400 N.am   57  LYS57      -0.1977
     15  CA         8.6720   42.9090   -4.8220 C.3    57  LYS57       0.1596
     16  C          7.5850   43.9660   -4.8610 C.2    57  LYS57       0.2287
     17  O          7.7720   44.9950   -5.5030 O.2    57  LYS57      -0.2864
     18  CB         8.7220   42.1980   -6.1670 C.3    57  LYS57       0.0298
     19  CG        10.0330   41.4980   -6.4070 C.3    57  LYS57       0.0038
     20  CD        11.1980   42.4260   -6.1050 C.3    57  LYS57       0.0206
     21  CE        12.4420   42.0000   -6.8910 C.3    57  LYS57       0.1093
     22  NZ        12.9620   40.6420   -6.5670 N.3    57  LYS57      -0.1314
     23  N          8.7130   38.3180  -10.0920 N.3    87  ASN87      -0.1240
     24  CA         7.7480   39.0290   -9.2610 C.3    87  ASN87       0.1653
     25  C          7.7030   40.5330   -9.4850 C.2    87  ASN87       0.2266
     26  O          6.6650   41.1580   -9.2720 O.2    87  ASN87      -0.2867
     27  CB         8.0390   38.7470   -7.7880 C.3    87  ASN87       0.1155
     28  CG         7.7340   37.3190   -7.4040 C.2    87  ASN87       0.2627
     29  OD1        8.4760   36.6920   -6.6470 O.2    87  ASN87      -0.2716
     30  ND2        6.6330   36.7980   -7.9150 N.am   87  ASN87      -0.0877
     31  N         14.7870   51.0870   -5.2110 N.3   164  ASN164     -0.1240
     32  CA        14.5830   49.6930   -4.8320 C.3   164  ASN164      0.1653
     33  C         15.0750   49.6290   -3.3860 C.2   164  ASN164      0.2266
     34  O         14.3230   49.3490   -2.4560 O.2   164  ASN164     -0.2867
     35  CB        15.4410   48.7690   -5.7120 C.3   164  ASN164      0.1155
     36  CG        15.3170   47.2930   -5.3250 C.2   164  ASN164      0.2627
     37  OD1       15.2140   46.9430   -4.1410 O.2   164  ASN164     -0.2716
     38  ND2       15.3500   46.4200   -6.3280 N.am  164  ASN164     -0.0877
     39  N         13.3270   49.3930    1.2100 N.3   168  HIS168     -0.1241
     40  CA        13.5950   48.4950    2.3080 C.3   168  HIS168      0.1621
     41  C         13.9970   49.1400    3.6130 C.2   168  HIS168      0.2264
     42  O         14.3740   48.4580    4.5650 O.2   168  HIS168     -0.2867
     43  CB        14.6000   47.4490    1.8590 C.3   168  HIS168      0.0745
     44  CG        14.0340   46.5000    0.8520 C.ar  168  HIS168      0.0817
     45  ND1       13.0230   45.6160    1.1620 N.ar  168  HIS168     -0.2268
     46  CD2       14.2610   46.3650   -0.4750 C.ar  168  HIS168      0.1154
     47  CE1       12.6480   44.9790    0.0680 C.ar  168  HIS168      0.1986
     48  NE2       13.3820   45.4150   -0.9400 N.ar  168  HIS168     -0.2212
     49  N         19.3900   37.4370    4.2270 N.3   188  SER188     -0.1202
     50  CA        18.6340   37.7570    3.0280 C.3   188  SER188      0.2020
     51  C         19.2270   37.1910    1.7420 C.2   188  SER188      0.2619
     52  O         20.3750   37.4890    1.4060 O.2   188  SER188     -0.2717
     53  CB        18.5110   39.2830    2.9050 C.3   188  SER188      0.2103
     54  OG        17.9460   39.6800    1.6650 O.3   188  SER188     -0.2182
     55  N         18.4400   36.3820    1.0280 N.am  189  ALA189     -0.1965
     56  CA        18.8620   35.8100   -0.2480 C.3   189  ALA189      0.1728
     57  C         18.8580   36.9860   -1.2220 C.2   189  ALA189      0.2616
     58  O         17.8980   37.7550   -1.2760 O.2   189  ALA189     -0.2715
     59  CB        17.8840   34.7340   -0.7050 C.3   189  ALA189      0.0334
     60  N         19.9240   37.1070   -2.0050 N.am  190  VAL190     -0.1963
     61  CA        20.0800   38.2320   -2.9110 C.3   190  VAL190      0.1727
     62  C         19.6510   38.0880   -4.3640 C.2   190  VAL190      0.2617
     63  O         20.0570   37.1600   -5.0610 O.2   190  VAL190     -0.2715
     64  CB        21.5450   38.7030   -2.8960 C.3   190  VAL190      0.0290
     65  CG1       21.7040   39.9560   -3.7480 C.3   190  VAL190      0.0023
     66  CG2       21.9870   38.9390   -1.4650 C.3   190  VAL190      0.0023
     67  N         18.8330   39.0400   -4.8080 N.am  191  GLY191     -0.1940
     68  CA        18.3750   39.0660   -6.1880 C.3   191  GLY191      0.2014
     69  C         19.0080   40.2980   -6.8100 C.2   191  GLY191      0.2640
     70  O         19.9990   40.2170   -7.5350 O.2   191  GLY191     -0.2714
     71  N         18.4290   41.4480   -6.4810 N.am  192  THR192     -0.1936
     72  CA        18.8730   42.7600   -6.9260 C.3   192  THR192      0.2028
     73  C         19.6870   43.3880   -5.7920 C.2   192  THR192      0.2643
     74  O         20.3440   44.4220   -5.9780 O.2   192  THR192     -0.2714
     75  CB        17.6760   43.6700   -7.1840 C.3   192  THR192      0.1808
     76  OG1       16.9880   43.9070   -5.9480 O.3   192  THR192     -0.2208
     77  CG2       16.7240   43.0210   -8.1570 C.3   192  THR192      0.0379
     78  N         19.6060   42.7520   -4.6190 N.am  193  SER193     -0.1935
     79  CA        20.2880   43.1660   -3.3890 C.3   193  SER193      0.2055
     80  C         19.5690   44.3340   -2.7160 C.2   193  SER193      0.2644
     81  O         20.0340   44.8620   -1.7030 O.2   193  SER193     -0.2714
     82  CB        21.7560   43.5440   -3.6560 C.3   193  SER193      0.2130
     83  OG        21.8670   44.8310   -4.2400 O.3   193  SER193     -0.2179
     84  N         18.4320   44.7320   -3.2780 N.am  194  GLY194     -0.1939
     85  CA        17.6810   45.8300   -2.6980 C.3   194  GLY194      0.2014
     86  C         17.3320   45.5870   -1.2370 C.2   194  GLY194      0.2640
     87  O         17.4290   46.4930   -0.4020 O.2   194  GLY194     -0.2714
     88  N         16.9330   44.3540   -0.9290 N.am  195  THR195     -0.1936
     89  CA        16.5550   43.9720    0.4280 C.3   195  THR195      0.2028
     90  C         17.7190   43.9660    1.4310 C.2   195  THR195      0.2642
     91  O         17.6820   44.6600    2.4400 O.2   195  THR195     -0.2714
     92  CB        15.8970   42.5680    0.4420 C.3   195  THR195      0.1808
     93  OG1       14.8030   42.5430   -0.4770 O.3   195  THR195     -0.2208
     94  CG2       15.3750   42.2300    1.8330 C.3   195  THR195      0.0379
     95  N         18.7490   43.1800    1.1560 N.am  196  VAL196     -0.1977
     96  CA        19.8770   43.0890    2.0670 C.3   196  VAL196      0.1596
     97  C         20.5260   44.4470    2.3560 C.2   196  VAL196      0.2287
     98  O         20.8630   44.7530    3.4980 O.2   196  VAL196     -0.2864
     99  CB        20.9490   42.1050    1.5290 C.3   196  VAL196      0.0276
    100  CG1       21.7900   42.7750    0.4520 C.3   196  VAL196      0.0022
    101  CG2       21.8100   41.6030    2.6640 C.3   196  VAL196      0.0022
    102  N         15.1760   30.1090   -7.9550 N.3   234  GLN234     -0.1231
    103  CA        14.5050   31.2560   -8.5520 C.3   234  GLN234      0.1698
    104  C         14.4330   32.4890   -7.6540 C.2   234  GLN234      0.2593
    105  O         14.2750   32.3840   -6.4370 O.2   234  GLN234     -0.2718
    106  CB        13.0960   30.8600   -8.9930 C.3   234  GLN234      0.0381
    107  CG        13.0440   30.1810  -10.3390 C.3   234  GLN234      0.0905
    108  CD        11.6290   29.8790  -10.7710 C.2   234  GLN234      0.2608
    109  OE1       10.7220   30.6760  -10.5390 O.2   234  GLN234     -0.2717
    110  NE2       11.4320   28.7330  -11.4140 N.am  234  GLN234     -0.0878
    111  N         14.5540   33.6600   -8.2690 N.am  235  GLY235     -0.1942
    112  CA        14.4890   34.8970   -7.5190 C.3   235  GLY235      0.2014
    113  C         15.8450   35.4560   -7.1490 C.2   235  GLY235      0.2638
    114  O         15.9640   36.6390   -6.8260 O.2   235  GLY235     -0.2714
    115  N         16.8700   34.6100   -7.1790 N.am  236  ILE236     -0.1977
    116  CA        18.2160   35.0530   -6.8470 C.3   236  ILE236      0.1596
    117  C         19.2420   34.5080   -7.8410 C.2   236  ILE236      0.2287
    118  O         18.8760   33.9330   -8.8670 O.2   236  ILE236     -0.2864
    119  CB        18.6070   34.6290   -5.4210 C.3   236  ILE236      0.0276
    120  CG1       18.6020   33.1110   -5.2960 C.3   236  ILE236      0.0022
    121  CG2       17.6300   35.2210   -4.4200 C.3   236  ILE236      0.0022
    122  CD1       19.1890   32.6310   -3.9880 C.3   236  ILE236      0.0001
    123  N         13.9580   30.6180   -2.7600 N.3   279  SER279     -0.1217
    124  CA        14.9050   31.5560   -2.1640 C.3   279  SER279      0.1889
    125  C         14.7510   31.6090   -0.6490 C.2   279  SER279      0.2288
    126  O         15.7290   31.8170    0.0680 O.2   279  SER279     -0.2866
    127  CB        14.7520   32.9550   -2.7750 C.3   279  SER279      0.2089
    128  OG        13.4620   33.4940   -2.5610 O.3   279  SER279     -0.2183
    129  N         11.0730   35.9350    0.9470 N.3   306  PRO306     -0.2102
    130  CA        10.6490   36.6560   -0.2590 C.3   306  PRO306      0.1504
    131  C          9.3360   36.3020   -0.9460 C.2   306  PRO306      0.2576
    132  O          8.6490   37.1900   -1.4650 O.2   306  PRO306     -0.2718
    133  CB        11.8330   36.4680   -1.2030 C.3   306  PRO306      0.0282
    134  CG        12.9880   36.2570   -0.2810 C.3   306  PRO306      0.0208
    135  CD        12.4020   35.3370    0.7400 C.3   306  PRO306      0.0893
    136  N          8.9840   35.0200   -0.9620 N.am  307  SER307     -0.1953
    137  CA         7.7720   34.6020   -1.6560 C.3   307  SER307      0.1924
    138  C          7.1560   33.3100   -1.1580 C.2   307  SER307      0.2314
    139  O          7.7510   32.5690   -0.3870 O.2   307  SER307     -0.2863
    140  CB         8.0730   34.4400   -3.1410 C.3   307  SER307      0.2116
    141  OG         9.0300   33.4120   -3.3190 O.3   307  SER307     -0.2180
    142  N          5.3810   28.2770   -7.3090 N.3   312  TYR312     -0.1241
    143  CA         6.4210   27.3430   -7.7500 C.3   312  TYR312      0.1605
    144  C          5.8800   25.9280   -7.9260 C.2   312  TYR312      0.2264
    145  O          6.6300   24.9540   -7.8610 O.2   312  TYR312     -0.2867
    146  CB         7.5580   27.3140   -6.7250 C.3   312  TYR312      0.0534
    147  CG         8.1630   28.6710   -6.4630 C.ar  312  TYR312     -0.0201
    148  CD1        9.1170   29.2100   -7.3260 C.ar  312  TYR312     -0.0009
    149  CD2        7.7510   29.4390   -5.3710 C.ar  312  TYR312     -0.0009
    150  CE1        9.6460   30.4810   -7.1100 C.ar  312  TYR312      0.0417
    151  CE2        8.2730   30.7100   -5.1460 C.ar  312  TYR312      0.0417
    152  CZ         9.2180   31.2250   -6.0180 C.ar  312  TYR312      0.1957
    153  OH         9.7360   32.4790   -5.8020 O.3   312  TYR312     -0.2866
@<TRIPOS>BOND
     1   110   108   am
     2   108   109    2
     3   108   107    1
     4   107   106    1
     5    23    24    1
     6    25    26    2
     7    25    24    1
     8    24    27    1
     9   106   103    1
    10   118   117    2
    11   103   102    1
    12   103   104    1
    13   111   104   am
    14   111   112    1
    15    77    75    1
    16   144   145    2
    17   144   143    1
    18    30    28   am
    19   117   116    1
    20    27    28    1
    21   143   142    1
    22   143   146    1
    23   104   105    2
    24    70    69    2
    25   112   113    1
    26    28    29    2
    27   148   150   ar
    28   148   147   ar
    29    75    72    1
    30    75    76    1
    31   115   113   am
    32   115   116    1
    33   113   114    2
    34   150   152   ar
    35    72    71    1
    36    72    73    1
    37    21    22    1
    38    21    20    1
    39   116   119    1
    40    69    71   am
    41    69    68    1
    42   146   147    1
    43   147   149   ar
    44    19    18    1
    45    19    20    1
    46    38    36   am
    47    68    67    1
    48    18    15    1
    49   152   153    1
    50   152   151   ar
    51    74    73    2
    52    73    78   am
    53    35    36    1
    54    35    32    1
    55    17    16    2
    56   119   120    1
    57   119   121    1
    58   149   151   ar
    59    36    37    2
    60   120   122    1
    61    31    32    1
    62    63    62    2
    63    16    15    1
    64     6     5    1
    65    32    33    1
    66    15    14    1
    67    67    62   am
    68    78    79    1
    69    62    61    1
    70     5     2    1
    71    83    82    1
    72    65    64    1
    73    14     9   am
    74    82    79    1
    75    79    80    1
    76    33    34    2
    77   141   140    1
    78    84    80   am
    79    84    85    1
    80   140   137    1
    81    61    64    1
    82    61    60    1
    83    64    66    1
    84     2     1    1
    85     2     3    1
    86   127   128    1
    87   127   124    1
    88   123   124    1
    89    80    81    2
    90    85    86    1
    91     9    10    2
    92     9     8    1
    93    12    11    1
    94     3     4    2
    95     3     7   am
    96   124   125    1
    97    60    57   am
    98     7     8    1
    99   137   138    1
   100   137   136    1
   101   132   131    2
   102     8    11    1
   103    58    57    2
   104    86    88   am
   105    86    87    2
   106    57    56    1
   107   133   134    1
   108   133   130    1
   109   138   139    2
   110    11    13    1
   111   136   131   am
   112   131   130    1
   113    48    46   ar
   114    48    47   ar
   115    88    89    1
   116    59    56    1
   117   125   126    2
   118    93    92    1
   119    46    44   ar
   120   134   135    1
   121   130   129    1
   122    56    55    1
   123    47    45   ar
   124    89    92    1
   125    89    90    1
   126    92    94    1
   127   100    99    1
   128   135   129    1
   129    44    45   ar
   130    44    43    1
   131    55    51   am
   132    95    90   am
   133    95    96    1
   134    39    40    1
   135    52    51    2
   136    90    91    2
   137    99    96    1
   138    99   101    1
   139    54    53    1
   140    51    50    1
   141    43    40    1
   142    96    97    1
   143    40    41    1
   144    97    98    2
   145    53    50    1
   146    50    49    1
   147    41    42    2
