@<TRIPOS>MOLECULE
tmp/3bm6B00.pdb
 136 125 0 0 0
SMALL
GASTEIGER

@<TRIPOS>ATOM
      1  N         20.2400    1.5420   14.3830 N.3    61  SER61      -0.1217
      2  CA        21.5730    2.0370   14.7080 C.3    61  SER61       0.1889
      3  C         22.4630    0.9860   15.3780 C.2    61  SER61       0.2288
      4  O         23.6170    1.2770   15.6940 O.2    61  SER61      -0.2866
      5  CB        21.5390    3.2780   15.5690 C.3    61  SER61       0.2089
      6  OG        20.7310    4.2690   14.9580 O.3    61  SER61      -0.2183
      7  N         25.5820    0.4740   13.6870 N.3    64  LYS64      -0.1245
      8  CA        26.7500    1.3040   13.9590 C.3    64  LYS64       0.1561
      9  C         27.8600    0.5170   14.6490 C.2    64  LYS64       0.2260
     10  O         29.0290    0.8870   14.5500 O.2    64  LYS64      -0.2867
     11  CB        26.3850    2.5350   14.8080 C.3    64  LYS64       0.0271
     12  CG        25.5270    3.5840   14.0700 C.3    64  LYS64       0.0035
     13  CD        25.1530    4.7530   14.9890 C.3    64  LYS64       0.0206
     14  CE        24.3940    5.8620   14.2600 C.3    64  LYS64       0.1093
     15  NZ        23.0840    5.4410   13.6850 N.3    64  LYS64      -0.1314
     16  N         22.0190   14.9290   13.1280 N.3   116  LEU116     -0.1231
     17  CA        21.5390   13.5920   13.4590 C.3   116  LEU116      0.1693
     18  C         21.1570   12.8410   12.1920 C.2   116  LEU116      0.2591
     19  O         21.4930   11.6700   12.0300 O.2   116  LEU116     -0.2718
     20  CB        20.3250   13.6590   14.3860 C.3   116  LEU116      0.0284
     21  CG        19.5550   12.3610   14.6300 C.3   116  LEU116      0.0019
     22  CD1       20.4540   11.3330   15.2960 C.3   116  LEU116      0.0001
     23  CD2       18.3480   12.6430   15.4970 C.3   116  LEU116      0.0001
     24  N         20.4620   13.5230   11.2890 N.am  117  GLN117     -0.1979
     25  CA        20.0320   12.8940   10.0550 C.3   117  GLN117      0.1601
     26  C         20.6130   13.5710    8.8290 C.2   117  GLN117      0.2287
     27  O         20.8950   14.7700    8.8350 O.2   117  GLN117     -0.2864
     28  CB        18.5090   12.9090    9.9290 C.3   117  GLN117      0.0394
     29  CG        17.7790   13.1110   11.2510 C.3   117  GLN117      0.0908
     30  CD        16.2760   13.1800   11.0900 C.2   117  GLN117      0.2608
     31  OE1       15.7580   13.9400   10.2660 O.2   117  GLN117     -0.2717
     32  NE2       15.5620   12.3900   11.8870 N.am  117  GLN117     -0.0878
     33  N         25.3260   12.6810   18.9570 N.3   147  TYR147     -0.1241
     34  CA        24.9680   11.4550   18.2530 C.3   147  TYR147      0.1605
     35  C         24.4300   11.7900   16.8720 C.2   147  TYR147      0.2264
     36  O         23.5050   12.5880   16.7480 O.2   147  TYR147     -0.2867
     37  CB        23.9360   10.6950   19.0640 C.3   147  TYR147      0.0534
     38  CG        23.5370    9.3620   18.4970 C.ar  147  TYR147     -0.0201
     39  CD1       22.3400    9.2140   17.8020 C.ar  147  TYR147     -0.0009
     40  CD2       24.3360    8.2340   18.6860 C.ar  147  TYR147     -0.0009
     41  CE1       21.9430    7.9780   17.3140 C.ar  147  TYR147      0.0417
     42  CE2       23.9450    6.9860   18.2000 C.ar  147  TYR147      0.0417
     43  CZ        22.7490    6.8700   17.5190 C.ar  147  TYR147      0.1957
     44  OH        22.3420    5.6540   17.0470 O.3   147  TYR147     -0.2866
     45  N         23.9230   10.2710   12.4910 N.3   149  ASN149     -0.1240
     46  CA        24.1210    9.3960   11.3430 C.3   149  ASN149      0.1653
     47  C         25.1110   10.0610   10.3850 C.2   149  ASN149      0.2266
     48  O         25.8570    9.3770    9.6830 O.2   149  ASN149     -0.2867
     49  CB        22.8240    9.1380   10.5840 C.3   149  ASN149      0.1155
     50  CG        21.8880    8.2020   11.3220 C.2   149  ASN149      0.2627
     51  OD1       22.3000    7.4690   12.2260 O.2   149  ASN149     -0.2716
     52  ND2       20.6160    8.2070   10.9250 N.am  149  ASN149     -0.0877
     53  N          4.2200    0.0940   12.6160 N.3   201  ARG201     -0.1245
     54  CA         4.0960    1.4500   13.1190 C.3   201  ARG201      0.1563
     55  C          2.6450    1.8500   12.8890 C.2   201  ARG201      0.2260
     56  O          2.2010    1.9600   11.7490 O.2   201  ARG201     -0.2867
     57  CB         5.0090    2.3960   12.3560 C.3   201  ARG201      0.0307
     58  CG         5.0300    3.8140   12.8850 C.3   201  ARG201      0.0489
     59  CD         5.7030    4.7410   11.8890 C.3   201  ARG201      0.2205
     60  NE         5.9560    6.0650   12.4500 N.pl3 201  ARG201     -0.0865
     61  CZ         6.3610    7.1110   11.7370 C.cat 201  ARG201      0.5346
     62  NH1        6.5730    8.2810   12.3290 N.pl3 201  ARG201      0.1354
     63  NH2        6.5430    6.9910   10.4290 N.pl3 201  ARG201      0.1354
     64  N         12.3470   -0.1680    6.4850 N.3   208  VAL208     -0.1231
     65  CA        13.1520    1.0450    6.4560 C.3   208  VAL208      0.1692
     66  C         13.3340    1.5310    5.0170 C.2   208  VAL208      0.2592
     67  O         13.5360    0.7290    4.1060 O.2   208  VAL208     -0.2718
     68  CB        14.5330    0.8010    7.0970 C.3   208  VAL208      0.0266
     69  CG1       15.2590   -0.3130    6.3590 C.3   208  VAL208      0.0020
     70  CG2       15.3480    2.0900    7.0880 C.3   208  VAL208      0.0020
     71  N         13.2480    2.8450    4.8220 N.am  209  SER209     -0.1952
     72  CA        13.3960    3.4480    3.5000 C.3   209  SER209      0.1924
     73  C         14.8480    3.7570    3.1630 C.2   209  SER209      0.2314
     74  O         15.6620    4.0190    4.0490 O.2   209  SER209     -0.2863
     75  CB        12.5920    4.7440    3.3800 C.3   209  SER209      0.2116
     76  OG        11.2070    4.5200    3.5840 O.3   209  SER209     -0.2180
     77  N         22.4300    2.6910    9.5870 N.3   218  TYR218     -0.1241
     78  CA        21.3050    1.9450   10.1430 C.3   218  TYR218      0.1605
     79  C         20.7240    0.9190    9.1730 C.2   218  TYR218      0.2264
     80  O         19.5610    0.5360    9.3040 O.2   218  TYR218     -0.2867
     81  CB        20.2090    2.9320   10.5400 C.3   218  TYR218      0.0534
     82  CG        19.7570    3.8110    9.3840 C.ar  218  TYR218     -0.0201
     83  CD1       18.8480    3.3440    8.4390 C.ar  218  TYR218     -0.0009
     84  CD2       20.2880    5.0900    9.2050 C.ar  218  TYR218     -0.0009
     85  CE1       18.4780    4.1240    7.3420 C.ar  218  TYR218      0.0417
     86  CE2       19.9250    5.8800    8.1100 C.ar  218  TYR218      0.0417
     87  CZ        19.0220    5.3870    7.1830 C.ar  218  TYR218      0.1957
     88  OH        18.6710    6.1520    6.0870 O.3   218  TYR218     -0.2866
     89  N         15.8160    9.0990   24.5780 N.3   286  ASN286     -0.1240
     90  CA        16.3220    9.9590   23.5100 C.3   286  ASN286      0.1653
     91  C         16.4650   11.4220   23.8950 C.2   286  ASN286      0.2266
     92  O         17.2490   12.1550   23.2910 O.2   286  ASN286     -0.2867
     93  CB        15.4790    9.8450   22.2470 C.3   286  ASN286      0.1155
     94  CG        15.7610    8.5650   21.4880 C.2   286  ASN286      0.2627
     95  OD1       16.9020    8.1050   21.4390 O.2   286  ASN286     -0.2716
     96  ND2       14.7320    7.9890   20.8870 N.am  286  ASN286     -0.0877
     97  N         20.1600   11.7560   22.5150 N.3   290  LEU290     -0.1245
     98  CA        20.2900   12.5580   21.3030 C.3   290  LEU290      0.1561
     99  C         20.7520   13.9970   21.5620 C.2   290  LEU290      0.2260
    100  O         20.9100   14.7780   20.6240 O.2   290  LEU290     -0.2867
    101  CB        18.9770   12.5920   20.5330 C.3   290  LEU290      0.0270
    102  CG        18.3870   11.2470   20.1400 C.3   290  LEU290      0.0019
    103  CD1       17.1710   11.4880   19.2610 C.3   290  LEU290      0.0001
    104  CD2       19.4270   10.4100   19.3970 C.3   290  LEU290      0.0001
    105  N         16.9410    1.4330   16.3740 N.3   315  ALA315     -0.1231
    106  CA        15.5440    1.4130   15.9720 C.3   315  ALA315      0.1694
    107  C         15.3170    1.9740   14.5810 C.2   315  ALA315      0.2593
    108  O         16.1340    2.7330   14.0570 O.2   315  ALA315     -0.2718
    109  CB        14.7060    2.2070   16.9820 C.3   315  ALA315      0.0304
    110  N         14.2100    1.5630   13.9790 N.am  316  THR316     -0.1939
    111  CA        13.7910    2.0790   12.6850 C.3   316  THR316      0.2028
    112  C         12.3230    2.4140   12.9240 C.2   316  THR316      0.2642
    113  O         11.8420    2.3160   14.0540 O.2   316  THR316     -0.2714
    114  CB        13.8860    1.0400   11.5590 C.3   316  THR316      0.1808
    115  OG1       13.1560   -0.1360   11.9300 O.3   316  THR316     -0.2208
    116  CG2       15.3370    0.6940   11.2690 C.3   316  THR316      0.0379
    117  N         11.6110    2.8070   11.8800 N.am  317  GLY317     -0.1954
    118  CA        10.2100    3.1390   12.0470 C.3   317  GLY317      0.1869
    119  C          9.3800    1.9720   12.5560 C.2   317  GLY317      0.2309
    120  O          8.4350    2.1640   13.3240 O.2   317  GLY317     -0.2863
    121  N          8.8190   -0.4200   17.3320 N.3   340  ASN340     -0.1240
    122  CA         9.7340    0.5230   17.9610 C.3   340  ASN340      0.1653
    123  C          9.1680    1.0490   19.2860 C.2   340  ASN340      0.2266
    124  O          8.4320    2.0340   19.3080 O.2   340  ASN340     -0.2867
    125  CB        10.0350    1.6940   17.0190 C.3   340  ASN340      0.1155
    126  CG        11.0050    2.7100   17.6210 C.2   340  ASN340      0.2627
    127  OD1       11.6060    2.4760   18.6710 O.2   340  ASN340     -0.2716
    128  ND2       11.1660    3.8400   16.9460 N.am  340  ASN340     -0.0877
    129  N         13.2650    3.1300   24.4160 N.3   343  ASN343     -0.1240
    130  CA        14.5670    2.6150   24.8140 C.3   343  ASN343      0.1653
    131  C         14.6380    2.2160   26.2950 C.2   343  ASN343      0.2266
    132  O         15.1290    1.1430   26.6230 O.2   343  ASN343     -0.2867
    133  CB        15.6950    3.6220   24.5400 C.3   343  ASN343      0.1155
    134  CG        15.9680    3.8250   23.0550 C.2   343  ASN343      0.2627
    135  OD1       15.8780    2.8910   22.2510 O.2   343  ASN343     -0.2716
    136  ND2       16.3300    5.0520   22.6880 N.am  343  ASN343     -0.0877
@<TRIPOS>BOND
     1    73    72    1
     2    73    74    2
     3    75    72    1
     4    75    76    1
     5    72    71    1
     6    67    66    2
     7    71    66   am
     8    66    65    1
     9    88    87    1
    10    69    68    1
    11    65    64    1
    12    65    68    1
    13    70    68    1
    14    87    85   ar
    15    87    86   ar
    16    85    83   ar
    17    86    84   ar
    18    83    82   ar
    19    26    27    2
    20    26    25    1
    21    79    80    2
    22    79    78    1
    23    84    82   ar
    24    82    81    1
    25    77    78    1
    26    48    47    2
    27    28    25    1
    28    28    29    1
    29    25    24    1
    30    78    81    1
    31    31    30    2
    32    47    46    1
    33    63    61    1
    34    49    50    1
    35    49    46    1
    36    52    50   am
    37    30    29    1
    38    30    32   am
    39   116   114    1
    40    24    18   am
    41    50    51    2
    42    46    45    1
    43   114   115    1
    44   114   111    1
    45    61    62    1
    46    61    60    2
    47    56    55    2
    48   117   118    1
    49   117   112   am
    50    59    60    1
    51    59    58    1
    52    19    18    2
    53   118   119    1
    54    18    17    1
    55    57    58    1
    56    57    54    1
    57   119   120    2
    58    53    54    1
    59   111   112    1
    60   111   110    1
    61    55    54    1
    62   112   113    2
    63    16    17    1
    64    17    20    1
    65    15    14    1
    66     7     8    1
    67     8     9    1
    68     8    11    1
    69   110   107   am
    70   108   107    2
    71    12    11    1
    72    12    13    1
    73    14    13    1
    74     1     2    1
    75    20    21    1
    76    10     9    2
    77   107   106    1
    78    21    22    1
    79    21    23    1
    80     2     3    1
    81     2     5    1
    82     6     5    1
    83     3     4    2
    84   106   105    1
    85   106   109    1
    86    36    35    2
    87    35    34    1
    88   128   126   am
    89   125   126    1
    90   125   122    1
    91    44    43    1
    92    41    43   ar
    93    41    39   ar
    94   121   122    1
    95    43    42   ar
    96   126   127    2
    97    39    38   ar
    98   122   123    1
    99    42    40   ar
   100    34    33    1
   101    34    37    1
   102    38    40   ar
   103    38    37    1
   104   103   102    1
   105   123   124    2
   106   104   102    1
   107   102   101    1
   108   101    98    1
   109   100    99    2
   110    96    94   am
   111    98    99    1
   112    98    97    1
   113    95    94    2
   114    94    93    1
   115    93    90    1
   116   135   134    2
   117   136   134   am
   118   134   133    1
   119    92    91    2
   120    90    91    1
   121    90    89    1
   122   129   130    1
   123   133   130    1
   124   130   131    1
   125   131   132    2
