@<TRIPOS>MOLECULE
tmp/3bm8A00.pdb
 90 86 0 0 0
SMALL
GASTEIGER

@<TRIPOS>ATOM
      1  N         46.6870   11.9170   17.1470 N.3    43  PHE43      -0.1241
      2  CA        47.4690   11.3620   18.2410 C.3    43  PHE43       0.1605
      3  C         47.0790    9.8930   18.3020 C.2    43  PHE43       0.2264
      4  O         45.9030    9.5690   18.4480 O.2    43  PHE43      -0.2867
      5  CB        47.1260   12.0610   19.5610 C.3    43  PHE43       0.0534
      6  CG        47.4200   13.5370   19.5610 C.ar   43  PHE43      -0.0203
      7  CD1       48.7250   13.9990   19.4700 C.ar   43  PHE43      -0.0042
      8  CD2       46.3870   14.4660   19.6200 C.ar   43  PHE43      -0.0042
      9  CE1       48.9980   15.3660   19.4340 C.ar   43  PHE43      -0.0003
     10  CE2       46.6460   15.8330   19.5840 C.ar   43  PHE43      -0.0003
     11  CZ        47.9560   16.2840   19.4900 C.ar   43  PHE43      -0.0000
     12  N         44.7570    8.6860   21.2020 N.3    46  ILE46      -0.1245
     13  CA        43.4920    9.4000   21.3160 C.3    46  ILE46       0.1561
     14  C         42.7140    9.0140   20.0760 C.2    46  ILE46       0.2260
     15  O         42.6920    9.7360   19.0820 O.2    46  ILE46      -0.2867
     16  CB        43.7300   10.9080   21.3270 C.3    46  ILE46       0.0252
     17  CG1       44.6690   11.2460   22.4850 C.3    46  ILE46       0.0019
     18  CG2       42.4100   11.6450   21.4180 C.3    46  ILE46       0.0019
     19  CD1       45.1390   12.6740   22.5090 C.3    46  ILE46       0.0001
     20  N         45.7730   25.0900   25.2130 N.3   170  ALA170     -0.1231
     21  CA        45.4350   23.6770   25.3360 C.3   170  ALA170      0.1694
     22  C         45.8380   23.1400   26.7110 C.2   170  ALA170      0.2591
     23  O         46.6770   23.7250   27.3870 O.2   170  ALA170     -0.2718
     24  CB        46.1350   22.8800   24.2380 C.3   170  ALA170      0.0304
     25  N         45.2270   22.0330   27.1260 N.am  171  GLN171     -0.1979
     26  CA        45.5470   21.4210   28.4140 C.3   171  GLN171      0.1601
     27  C         45.1810   22.2700   29.6290 C.2   171  GLN171      0.2287
     28  O         45.7140   22.0510   30.7220 O.2   171  GLN171     -0.2864
     29  CB        47.0430   21.0900   28.4760 C.3   171  GLN171      0.0394
     30  CG        47.4150   19.7050   27.9800 C.3   171  GLN171      0.0908
     31  CD        47.8880   18.8040   29.1090 C.2   171  GLN171      0.2608
     32  OE1       48.8680   19.1110   29.8010 O.2   171  GLN171     -0.2717
     33  NE2       47.1930   17.6880   29.3040 N.am  171  GLN171     -0.0878
     34  N         39.3180   20.8490   19.4800 N.3   217  CYS217     -0.1221
     35  CA        40.4920   21.6370   19.8040 C.3   217  CYS217      0.1808
     36  C         41.5580   21.1000   18.8720 C.2   217  CYS217      0.2601
     37  O         41.5590   21.4020   17.6810 O.2   217  CYS217     -0.2717
     38  CB        40.9140   21.5770   21.2970 C.3   217  CYS217      0.0970
     39  SG        40.3620   20.2020   22.3990 S.3   217  CYS217     -0.0800
     40  N         42.4380   20.2680   19.4100 N.am  218  ARG218     -0.1965
     41  CA        43.5060   19.6640   18.6280 C.3   218  ARG218      0.1729
     42  C         43.2050   18.1690   18.5750 C.2   218  ARG218      0.2616
     43  O         43.0300   17.6050   17.5000 O.2   218  ARG218     -0.2715
     44  CB        44.8680   19.9460   19.2960 C.3   218  ARG218      0.0348
     45  CG        46.0940   19.4500   18.5440 C.3   218  ARG218      0.0492
     46  CD        47.3770   20.0140   19.1470 C.3   218  ARG218      0.2205
     47  NE        48.5750   19.3580   18.6260 N.pl3 218  ARG218     -0.0865
     48  CZ        49.8150   19.6460   19.0150 C.cat 218  ARG218      0.5346
     49  NH1       50.0270   20.5900   19.9250 N.pl3 218  ARG218      0.1354
     50  NH2       50.8460   18.9660   18.5240 N.pl3 218  ARG218      0.1354
     51  N         43.1180   17.5430   19.7440 N.am  219  ALA219     -0.1963
     52  CA        42.8260   16.1240   19.8370 C.3   219  ALA219      0.1728
     53  C         41.3300   15.9140   20.0380 C.2   219  ALA219      0.2617
     54  O         40.8620   14.7850   20.1130 O.2   219  ALA219     -0.2715
     55  CB        43.5920   15.5170   20.9880 C.3   219  ALA219      0.0334
     56  N         40.5870   17.0110   20.1190 N.am  220  GLY220     -0.1940
     57  CA        39.1490   16.9480   20.3110 C.3   220  GLY220      0.2014
     58  C         38.6740   16.2190   21.5540 C.2   220  GLY220      0.2639
     59  O         37.6660   15.5180   21.4950 O.2   220  GLY220     -0.2714
     60  N         39.3720   16.3710   22.6780 N.am  221  VAL221     -0.1963
     61  CA        38.9620   15.6900   23.9080 C.3   221  VAL221      0.1727
     62  C         39.0640   16.5290   25.1750 C.2   221  VAL221      0.2617
     63  O         38.3530   16.2780   26.1470 O.2   221  VAL221     -0.2715
     64  CB        39.7780   14.3990   24.1530 C.3   221  VAL221      0.0290
     65  CG1       39.5510   13.4180   23.0230 C.3   221  VAL221      0.0023
     66  CG2       41.2500   14.7360   24.2930 C.3   221  VAL221      0.0023
     67  N         39.9490   17.5140   25.1800 N.am  222  GLY222     -0.1940
     68  CA        40.0910   18.3270   26.3710 C.3   222  GLY222      0.2014
     69  C         39.1700   19.5210   26.3500 C.2   222  GLY222      0.2638
     70  O         38.0670   19.4770   26.8920 O.2   222  GLY222     -0.2714
     71  N         39.6410   20.5920   25.7160 N.am  223  ARG223     -0.1977
     72  CA        38.8900   21.8320   25.6050 C.3   223  ARG223      0.1597
     73  C         37.5350   21.5630   24.9990 C.2   223  ARG223      0.2287
     74  O         36.5410   22.2010   25.3470 O.2   223  ARG223     -0.2864
     75  CB        39.6490   22.8230   24.7280 C.3   223  ARG223      0.0334
     76  CG        40.8520   23.4240   25.4040 C.3   223  ARG223      0.0492
     77  CD        41.7000   24.1840   24.4210 C.3   223  ARG223      0.2205
     78  NE        42.2660   23.2800   23.4300 N.pl3 223  ARG223     -0.0865
     79  CZ        43.3270   23.5610   22.6860 C.cat 223  ARG223      0.5346
     80  NH1       43.9420   24.7290   22.8230 N.pl3 223  ARG223      0.1354
     81  NH2       43.7770   22.6700   21.8140 N.pl3 223  ARG223      0.1354
     82  N         39.7650   15.5400   29.2560 N.3   260  GLN260     -0.1245
     83  CA        41.1590   15.2120   29.4820 C.3   260  GLN260      0.1566
     84  C         41.7130   15.6020   30.8390 C.2   260  GLN260      0.2260
     85  O         41.9850   14.7430   31.6690 O.2   260  GLN260     -0.2867
     86  CB        42.0070   15.8550   28.3900 C.3   260  GLN260      0.0367
     87  CG        43.4600   15.4270   28.3970 C.3   260  GLN260      0.0905
     88  CD        44.2840   16.1630   27.3600 C.2   260  GLN260      0.2608
     89  OE1       45.4100   15.7680   27.0550 O.2   260  GLN260     -0.2717
     90  NE2       43.7310   17.2470   26.8190 N.am  260  GLN260     -0.0878
@<TRIPOS>BOND
     1     1     2    1
     2    43    42    2
     3    37    36    2
     4     2     3    1
     5     2     5    1
     6     3     4    2
     7    50    48    1
     8    45    46    1
     9    45    44    1
    10    42    41    1
    11    42    51   am
    12    47    48    2
    13    47    46    1
    14    41    44    1
    15    41    40    1
    16    36    40   am
    17    36    35    1
    18    48    49    1
    19    15    14    2
    20     9     7   ar
    21     9    11   ar
    22     7     6   ar
    23    34    35    1
    24    11    10   ar
    25     6     5    1
    26     6     8   ar
    27    10     8   ar
    28    51    52    1
    29    35    38    1
    30    52    53    1
    31    52    55    1
    32    53    54    2
    33    53    56   am
    34    14    13    1
    35    56    57    1
    36    57    58    1
    37    12    13    1
    38    38    39    1
    39    13    16    1
    40    16    18    1
    41    16    17    1
    42    59    58    2
    43    58    60   am
    44    81    79    1
    45    17    19    1
    46    60    61    1
    47    79    80    1
    48    79    78    2
    49    65    64    1
    50    78    77    1
    51    61    64    1
    52    61    62    1
    53    64    66    1
    54    24    21    1
    55    77    76    1
    56    75    76    1
    57    75    72    1
    58    73    74    2
    59    73    72    1
    60    62    67   am
    61    62    63    2
    62    67    68    1
    63    20    21    1
    64    21    22    1
    65    72    71    1
    66    71    69   am
    67    69    68    1
    68    69    70    2
    69    22    25   am
    70    22    23    2
    71    90    88   am
    72    89    88    2
    73    25    26    1
    74    88    87    1
    75    30    29    1
    76    30    31    1
    77    86    87    1
    78    86    83    1
    79    26    29    1
    80    26    27    1
    81    31    33   am
    82    31    32    2
    83    82    83    1
    84    83    84    1
    85    27    28    2
    86    84    85    2
