@<TRIPOS>MOLECULE
tmp/3bm9A00.pdb
 124 113 0 0 0
SMALL
GASTEIGER

@<TRIPOS>ATOM
      1  N          1.6010   32.8010   15.8950 N.3    32  LEU32      -0.1245
      2  CA         2.1910   32.3430   17.1500 C.3    32  LEU32       0.1561
      3  C          3.5090   33.0610   17.4550 C.2    32  LEU32       0.2260
      4  O          3.7820   33.4210   18.6000 O.2    32  LEU32      -0.2867
      5  CB         2.3740   30.8220   17.1360 C.3    32  LEU32       0.0270
      6  CG         1.0660   30.0270   17.0690 C.3    32  LEU32       0.0019
      7  CD1        1.3400   28.5280   16.9750 C.3    32  LEU32       0.0001
      8  CD2        0.1880   30.3380   18.2780 C.3    32  LEU32       0.0001
      9  N          2.5970   36.4500   18.7520 N.3    35  ASN35      -0.1225
     10  CA         2.1880   36.3660   20.1490 C.3    35  ASN35       0.1785
     11  C          3.4170   36.2920   21.0500 C.2    35  ASN35       0.2597
     12  O          3.4950   36.9610   22.0820 O.2    35  ASN35      -0.2718
     13  CB         1.3040   35.1320   20.3880 C.3    35  ASN35       0.1169
     14  CG        -0.0950   35.2840   19.8070 C.2    35  ASN35       0.2627
     15  OD1       -0.4490   36.3300   19.2600 O.2    35  ASN35      -0.2716
     16  ND2       -0.9030   34.2320   19.9330 N.am   35  ASN35      -0.0877
     17  N          4.3840   35.4740   20.6520 N.am   36  SER36      -0.1952
     18  CA         5.6110   35.3300   21.4280 C.3    36  SER36       0.1924
     19  C          6.3440   36.6670   21.5150 C.2    36  SER36       0.2314
     20  O          6.7970   37.0650   22.5850 O.2    36  SER36      -0.2863
     21  CB         6.5260   34.2680   20.8080 C.3    36  SER36       0.2116
     22  OG         6.0050   32.9620   21.0040 O.3    36  SER36      -0.2180
     23  N          5.0810   39.6830   21.2800 N.3    38  ASP38      -0.1225
     24  CA         4.3230   40.5340   22.1930 C.3    38  ASP38       0.1805
     25  C          4.6220   40.2210   23.6660 C.2    38  ASP38       0.2597
     26  O          4.7680   41.1350   24.4900 O.2    38  ASP38      -0.2718
     27  CB         2.8270   40.4130   21.9170 C.3    38  ASP38       0.1424
     28  CG         2.4180   41.0800   20.6140 C.2    38  ASP38       0.3668
     29  OD1        3.2490   41.8020   20.0150 O.co2  38  ASP38      -0.2456
     30  OD2        1.2600   40.8870   20.1930 O.co2  38  ASP38      -0.2456
     31  N          4.7140   38.9320   23.9930 N.am   39  ALA39      -0.1979
     32  CA         5.0050   38.5040   25.3670 C.3    39  ALA39       0.1597
     33  C          6.4380   38.8420   25.7830 C.2    39  ALA39       0.2287
     34  O          6.7060   39.1580   26.9450 O.2    39  ALA39      -0.2864
     35  CB         4.7530   37.0100   25.5260 C.3    39  ALA39       0.0319
     36  N          6.6090   42.4690   26.6130 N.3    42  LYS42      -0.1245
     37  CA         6.0450   42.7440   27.9340 C.3    42  LYS42       0.1561
     38  C          7.0620   42.5460   29.0510 C.2    42  LYS42       0.2260
     39  O          7.1950   43.3970   29.9280 O.2    42  LYS42      -0.2867
     40  CB         4.7890   41.9050   28.1890 C.3    42  LYS42       0.0271
     41  CG         3.5780   42.3820   27.4030 C.3    42  LYS42       0.0035
     42  CD         2.3120   41.6240   27.7840 C.3    42  LYS42       0.0206
     43  CE         1.1500   42.0390   26.8870 C.3    42  LYS42       0.1093
     44  NZ        -0.1600   41.5430   27.3870 N.3    42  LYS42      -0.1314
     45  N          8.9100   30.4220   23.8620 N.3    77  ASP77      -0.1239
     46  CA         9.4320   31.7660   24.0870 C.3    77  ASP77       0.1674
     47  C          9.7230   31.9990   25.5630 C.2    77  ASP77       0.2266
     48  O          9.2030   31.2880   26.4290 O.2    77  ASP77      -0.2867
     49  CB         8.4970   32.8470   23.5180 C.3    77  ASP77       0.1410
     50  CG         7.2030   33.0010   24.3130 C.2    77  ASP77       0.3668
     51  OD1        7.2590   33.3620   25.5150 O.co2  77  ASP77      -0.2456
     52  OD2        6.1170   32.7700   23.7280 O.co2  77  ASP77      -0.2456
     53  N          6.7820   37.0140   29.0400 N.3    80  ILE80      -0.1231
     54  CA         6.2580   37.2860   30.3720 C.3    80  ILE80       0.1692
     55  C          5.5340   36.0850   31.0050 C.2    80  ILE80       0.2593
     56  O          5.5060   35.9430   32.2280 O.2    80  ILE80      -0.2718
     57  CB         5.3570   38.5440   30.3610 C.3    80  ILE80       0.0266
     58  CG1        5.0880   39.0340   31.7880 C.3    80  ILE80       0.0019
     59  CG2        4.0700   38.2920   29.5770 C.3    80  ILE80       0.0020
     60  CD1        4.4660   40.4040   31.8420 C.3    80  ILE80       0.0001
     61  N          4.9680   35.2140   30.1760 N.am   81  GLY81      -0.1942
     62  CA         4.2290   34.0640   30.6760 C.3    81  GLY81       0.2014
     63  C          2.8050   34.4250   31.0770 C.2    81  GLY81       0.2638
     64  O          2.4790   35.5980   31.2700 O.2    81  GLY81      -0.2714
     65  N          1.9480   33.4150   31.1830 N.am   82  MET82      -0.1976
     66  CA         0.5520   33.6250   31.5650 C.3    82  MET82       0.1605
     67  C          0.2570   33.0390   32.9370 C.2    82  MET82       0.2287
     68  O          0.7960   31.9960   33.3070 O.2    82  MET82      -0.2864
     69  CB        -0.3870   32.9900   30.5340 C.3    82  MET82       0.0413
     70  CG        -0.4850   33.7540   29.2290 C.3    82  MET82       0.0598
     71  SD        -1.4520   32.8850   27.9750 S.3    82  MET82      -0.1393
     72  CE        -0.3100   31.5770   27.5320 C.3    82  MET82       0.0692
     73  N         -5.0650   34.0030   33.2040 N.3    86  ASP86      -0.1239
     74  CA        -4.8560   34.3250   31.7950 C.3    86  ASP86       0.1674
     75  C         -5.2660   33.1440   30.9130 C.2    86  ASP86       0.2266
     76  O         -5.9830   33.3080   29.9240 O.2    86  ASP86      -0.2867
     77  CB        -3.3850   34.6570   31.5190 C.3    86  ASP86       0.1410
     78  CG        -2.9520   36.0100   32.0790 C.2    86  ASP86       0.3668
     79  OD1       -3.7800   36.9430   32.2000 O.co2  86  ASP86      -0.2456
     80  OD2       -1.7480   36.1480   32.3760 O.co2  86  ASP86      -0.2456
     81  N         -6.4860   32.5530   26.9400 N.3    91  LEU91      -0.1231
     82  CA        -5.0570   32.7630   26.6920 C.3    91  LEU91       0.1693
     83  C         -4.6850   34.2480   26.6670 C.2    91  LEU91       0.2592
     84  O         -3.9260   34.6920   25.8050 O.2    91  LEU91      -0.2718
     85  CB        -4.6250   32.0940   25.3750 C.3    91  LEU91       0.0284
     86  CG        -4.8110   30.5740   25.1830 C.3    91  LEU91       0.0019
     87  CD1       -4.2400   29.7900   26.3520 C.3    91  LEU91       0.0001
     88  CD2       -6.2640   30.1760   24.9300 C.3    91  LEU91       0.0001
     89  N         -5.2260   35.0100   27.6120 N.am   92  GLY92      -0.1957
     90  CA        -4.8830   36.4170   27.7530 C.3    92  GLY92       0.1869
     91  C         -5.4520   37.3470   26.6940 C.2    92  GLY92       0.2309
     92  O         -4.9600   38.4660   26.5210 O.2    92  GLY92      -0.2863
     93  N         -4.0330   33.2060   18.1350 N.3   122  PHE122     -0.1241
     94  CA        -3.7330   31.9020   18.7160 C.3   122  PHE122      0.1605
     95  C         -4.5480   30.7870   18.0690 C.2   122  PHE122      0.2264
     96  O         -4.0150   29.7220   17.7690 O.2   122  PHE122     -0.2867
     97  CB        -3.9670   31.8860   20.2340 C.3   122  PHE122      0.0534
     98  CG        -3.9590   30.4970   20.8230 C.ar  122  PHE122     -0.0203
     99  CD1       -2.7630   29.8210   21.0220 C.ar  122  PHE122     -0.0042
    100  CD2       -5.1520   29.8580   21.1390 C.ar  122  PHE122     -0.0042
    101  CE1       -2.7570   28.5340   21.5500 C.ar  122  PHE122     -0.0003
    102  CE2       -5.1560   28.5730   21.6670 C.ar  122  PHE122     -0.0003
    103  CZ        -3.9630   27.9100   21.8710 C.ar  122  PHE122     -0.0000
    104  N         -0.5320   24.1800   25.7580 N.3   134  VAL134     -0.1245
    105  CA         0.1810   25.4060   26.0820 C.3   134  VAL134      0.1561
    106  C          0.7240   25.3030   27.5010 C.2   134  VAL134      0.2260
    107  O         -0.0510   25.2000   28.4550 O.2   134  VAL134     -0.2867
    108  CB        -0.7380   26.6400   25.9660 C.3   134  VAL134      0.0252
    109  CG1        0.0110   27.9150   26.3660 C.3   134  VAL134      0.0019
    110  CG2       -1.3000   26.7520   24.5470 C.3   134  VAL134      0.0019
    111  N          6.4120   30.8240   27.6380 N.3   168  THR168     -0.1218
    112  CA         5.3220   30.0050   27.1320 C.3   168  THR168      0.1862
    113  C          5.7940   29.0510   26.0420 C.2   168  THR168      0.2287
    114  O          6.6230   29.4100   25.1990 O.2   168  THR168     -0.2866
    115  CB         4.1780   30.8950   26.5990 C.3   168  THR168      0.1770
    116  OG1        3.6380   31.6710   27.6770 O.3   168  THR168     -0.2211
    117  CG2        3.0580   30.0540   25.9710 C.3   168  THR168      0.0375
    118  N          4.1380   26.5050   23.1490 N.3   170  VAL170     -0.1245
    119  CA         2.9340   26.0540   22.4480 C.3   170  VAL170      0.1561
    120  C          3.2790   24.8020   21.6650 C.2   170  VAL170      0.2260
    121  O          4.1120   24.8360   20.7580 O.2   170  VAL170     -0.2867
    122  CB         2.3710   27.1200   21.4830 C.3   170  VAL170      0.0252
    123  CG1        1.1620   26.5610   20.7170 C.3   170  VAL170      0.0019
    124  CG2        1.9910   28.3830   22.2440 C.3   170  VAL170      0.0019
@<TRIPOS>BOND
     1     1     2    1
     2     7     6    1
     3     6     5    1
     4     6     8    1
     5     5     2    1
     6     2     3    1
     7     3     4    2
     8    96    95    2
     9    95    94    1
    10    93    94    1
    11    94    97    1
    12     9    10    1
    13    15    14    2
    14    14    16   am
    15    14    13    1
    16    29    28   ar
    17    10    13    1
    18    10    11    1
    19    30    28   ar
    20    97    98    1
    21    28    27    1
    22    17    11   am
    23    17    18    1
    24   123   122    1
    25   121   120    2
    26    21    22    1
    27    21    18    1
    28    98    99   ar
    29    98   100   ar
    30    99   101   ar
    31    11    12    2
    32   100   102   ar
    33    23    24    1
    34    18    19    1
    35   122   124    1
    36   122   119    1
    37    19    20    2
    38   101   103   ar
    39   120   119    1
    40   102   103   ar
    41    27    24    1
    42    24    25    1
    43   119   118    1
    44    49    46    1
    45    49    50    1
    46    25    31   am
    47    25    26    2
    48    52    50   ar
    49    45    46    1
    50    31    32    1
    51    46    47    1
    52    50    51   ar
    53   110   108    1
    54    88    86    1
    55    86    85    1
    56    86    87    1
    57   114   113    2
    58    32    35    1
    59    32    33    1
    60    85    82    1
    61    47    48    2
    62   104   105    1
    63    33    34    2
    64    84    83    2
    65   108   105    1
    66   108   109    1
    67   117   115    1
    68   113   112    1
    69   105   106    1
    70    92    91    2
    71   115   112    1
    72   115   116    1
    73    36    37    1
    74    83    82    1
    75    83    89   am
    76    82    81    1
    77    91    90    1
    78    43    44    1
    79    43    42    1
    80   112   111    1
    81    41    42    1
    82    41    40    1
    83   106   107    2
    84    72    71    1
    85    89    90    1
    86    37    40    1
    87    37    38    1
    88    71    70    1
    89    53    54    1
    90    38    39    2
    91    70    69    1
    92    59    57    1
    93    76    75    2
    94    61    62    1
    95    61    55   am
    96    57    54    1
    97    57    58    1
    98    54    55    1
    99    69    66    1
   100    62    63    1
   101    75    74    1
   102    55    56    2
   103    63    65   am
   104    63    64    2
   105    65    66    1
   106    77    74    1
   107    77    78    1
   108    66    67    1
   109    58    60    1
   110    74    73    1
   111    78    79   ar
   112    78    80   ar
   113    67    68    2
