@<TRIPOS>MOLECULE
tmp/3bmqD02.pdb
 107 103 0 0 0
SMALL
GASTEIGER

@<TRIPOS>ATOM
      1  N        -29.6930   -8.5680   19.0830 N.3    96  PHE96      -0.1241
      2  CA       -28.4200   -9.2300   18.8860 C.3    96  PHE96       0.1605
      3  C        -28.6330  -10.5740   18.2100 C.2    96  PHE96       0.2264
      4  O        -29.2110  -11.4870   18.8090 O.2    96  PHE96      -0.2867
      5  CB       -27.6740   -9.4200   20.2370 C.3    96  PHE96       0.0534
      6  CG       -26.4110  -10.2410   20.1390 C.ar   96  PHE96      -0.0203
      7  CD1      -25.2090   -9.6700   19.7480 C.ar   96  PHE96      -0.0042
      8  CD2      -26.4300  -11.5950   20.4970 C.ar   96  PHE96      -0.0042
      9  CE1      -24.0220  -10.4160   19.6730 C.ar   96  PHE96      -0.0003
     10  CE2      -25.2960  -12.3610   20.4290 C.ar   96  PHE96      -0.0003
     11  CZ       -24.0850  -11.8030   20.0450 C.ar   96  PHE96      -0.0000
     12  N        -19.6340   -2.3670   23.4890 N.3   146  ASP146     -0.1239
     13  CA       -19.1820   -3.7290   23.2520 C.3   146  ASP146      0.1674
     14  C        -17.6710   -3.7120   23.1360 C.2   146  ASP146      0.2266
     15  O        -17.1400   -3.1200   22.2220 O.2   146  ASP146     -0.2867
     16  CB       -19.8100   -4.2920   21.9690 C.3   146  ASP146      0.1410
     17  CG       -19.5060   -5.7670   21.7550 C.2   146  ASP146      0.3668
     18  OD1      -18.4800   -6.2530   22.2880 O.co2 146  ASP146     -0.2456
     19  OD2      -20.2940   -6.4670   21.0620 O.co2 146  ASP146     -0.2456
     20  N        -15.7090   -5.8550   22.1100 N.3   148  MET148     -0.1245
     21  CA       -15.2780   -6.6440   20.9550 C.3   148  MET148      0.1570
     22  C        -15.6520   -5.9750   19.6230 C.2   148  MET148      0.2261
     23  O        -15.5560   -6.6290   18.5980 O.2   148  MET148     -0.2867
     24  CB       -15.8180   -8.0700   21.0720 C.3   148  MET148      0.0387
     25  CG       -15.3970   -8.6950   22.3780 C.3   148  MET148      0.0595
     26  SD       -13.6380   -8.9090   22.5940 S.3   148  MET148     -0.1393
     27  CE       -13.3190  -10.3610   21.5590 C.3   148  MET148      0.0692
     28  N        -13.0910   -6.6420   17.0230 N.3   151  GLN151     -0.1231
     29  CA       -12.8440   -8.0400   16.8790 C.3   151  GLN151      0.1683
     30  C        -14.1670   -8.7960   16.8710 C.2   151  GLN151      0.2434
     31  O        -14.4140   -9.6480   17.7290 O.2   151  GLN151     -0.2733
     32  CB       -11.9730   -8.5590   18.0370 C.3   151  GLN151      0.0380
     33  CG       -10.5700   -7.9930   18.0230 C.3   151  GLN151      0.0905
     34  CD       -10.1610   -7.5920   19.4150 C.2   151  GLN151      0.2608
     35  OE1      -10.5480   -6.5270   19.9000 O.2   151  GLN151     -0.2717
     36  NE2       -9.4170   -8.4760   20.0890 N.am  151  GLN151     -0.0878
     37  N        -14.9960   -8.5140   15.8500 N.am  152  PRO152     -0.2729
     38  CA       -16.3690   -8.9180   15.9610 C.3   152  PRO152      0.1401
     39  C        -16.6190  -10.3910   15.7120 C.2   152  PRO152      0.2269
     40  O        -15.7930  -11.0780   15.1260 O.2   152  PRO152     -0.2865
     41  CB       -17.0500   -8.0940   14.9010 C.3   152  PRO152      0.0296
     42  CG       -16.0880   -7.9800   13.8640 C.3   152  PRO152      0.0237
     43  CD       -14.7400   -7.7970   14.5910 C.3   152  PRO152      0.0939
     44  N        -18.2630  -13.4380   13.8560 N.3   153  MET153     -0.1245
     45  CA       -18.4860  -13.7630   12.4720 C.3   153  MET153      0.1570
     46  C        -19.9830  -13.6610   12.1690 C.2   153  MET153      0.2261
     47  O        -20.8040  -14.2440   12.9220 O.2   153  MET153     -0.2867
     48  CB       -18.0180  -15.2320   12.2430 C.3   153  MET153      0.0387
     49  CG       -18.2410  -15.7800   10.8420 C.3   153  MET153      0.0595
     50  SD       -17.4290  -14.7250    9.6040 S.3   153  MET153     -0.1393
     51  CE       -15.7070  -14.8790    9.9950 C.3   153  MET153      0.0692
     52  N        -22.0380  -11.1050   12.1440 N.3   155  PHE155     -0.1241
     53  CA       -22.7760  -10.1190   12.9620 C.3   155  PHE155      0.1605
     54  C        -22.6000   -8.6810   12.4400 C.2   155  PHE155      0.2264
     55  O        -22.5440   -7.7170   13.2420 O.2   155  PHE155     -0.2867
     56  CB       -22.3950  -10.2140   14.4410 C.3   155  PHE155      0.0534
     57  CG       -23.1090  -11.3270   15.2000 C.ar  155  PHE155     -0.0203
     58  CD1      -22.6920  -12.6470   15.0850 C.ar  155  PHE155     -0.0042
     59  CD2      -24.1710  -11.0260   16.0150 C.ar  155  PHE155     -0.0042
     60  CE1      -23.3470  -13.6650   15.7570 C.ar  155  PHE155     -0.0003
     61  CE2      -24.8290  -12.0360   16.7170 C.ar  155  PHE155     -0.0003
     62  CZ       -24.4340  -13.3570   16.5440 C.ar  155  PHE155     -0.0000
     63  N        -25.2760   -5.9260   13.6310 N.3   158  TYR158     -0.1241
     64  CA       -25.0850   -5.7100   15.0570 C.3   158  TYR158      0.1605
     65  C        -23.8260   -4.8220   15.2970 C.2   158  TYR158      0.2264
     66  O        -23.8980   -3.8270   16.0230 O.2   158  TYR158     -0.2867
     67  CB       -25.0130   -7.0590   15.8000 C.3   158  TYR158      0.0534
     68  CG       -24.5010   -6.8850   17.2030 C.ar  158  TYR158     -0.0201
     69  CD1      -25.3240   -6.3660   18.2230 C.ar  158  TYR158     -0.0009
     70  CD2      -23.1260   -7.0810   17.4880 C.ar  158  TYR158     -0.0009
     71  CE1      -24.8100   -6.0880   19.5120 C.ar  158  TYR158      0.0417
     72  CE2      -22.6240   -6.8030   18.7280 C.ar  158  TYR158      0.0417
     73  CZ       -23.4560   -6.2930   19.7490 C.ar  158  TYR158      0.1957
     74  OH       -22.9340   -6.0450   21.0040 O.3   158  TYR158     -0.2866
     75  N        -17.1710   -7.3000   27.6870 N.3   189  GLY189     -0.1210
     76  CA       -16.6640   -8.3430   26.7990 C.3   189  GLY189      0.1956
     77  C        -17.6730   -9.4830   26.7970 C.2   189  GLY189      0.2611
     78  O        -18.6420   -9.4810   26.0290 O.2   189  GLY189     -0.2717
     79  N        -17.4140  -10.4880   27.5910 N.am  190  VAL190     -0.1979
     80  CA       -18.4260  -11.5250   27.8450 C.3   190  VAL190      0.1595
     81  C        -18.9630  -11.3190   29.2520 C.2   190  VAL190      0.2287
     82  O        -18.2340  -11.4050   30.2500 O.2   190  VAL190     -0.2864
     83  CB       -17.9190  -12.9830   27.6570 C.3   190  VAL190      0.0276
     84  CG1      -16.8140  -13.3280   28.6400 C.3   190  VAL190      0.0022
     85  CG2      -19.0920  -14.0090   27.8200 C.3   190  VAL190      0.0022
     86  N        -16.5010  -19.8480   25.7670 N.3   205  TRP205     -0.1241
     87  CA       -16.3620  -18.3680   25.9660 C.3   205  TRP205      0.1605
     88  C        -15.6880  -18.0300   27.3030 C.2   205  TRP205      0.2264
     89  O        -14.7260  -17.2570   27.3530 O.2   205  TRP205     -0.2867
     90  CB       -17.7190  -17.6790   25.8420 C.3   205  TRP205      0.0550
     91  CG       -18.0650  -17.4930   24.4010 C.ar  205  TRP205      0.0003
     92  CD1      -18.9590  -18.2220   23.6490 C.ar  205  TRP205      0.0946
     93  CD2      -17.4490  -16.5630   23.5050 C.ar  205  TRP205      0.0152
     94  NE1      -18.9500  -17.7630   22.3410 N.ar  205  TRP205     -0.2442
     95  CE2      -18.0450  -16.7420   22.2340 C.ar  205  TRP205      0.0810
     96  CE3      -16.4710  -15.5710   23.6600 C.ar  205  TRP205      0.0012
     97  CZ2      -17.6620  -15.9860   21.1100 C.ar  205  TRP205      0.0191
     98  CZ3      -16.1150  -14.7920   22.5360 C.ar  205  TRP205      0.0001
     99  CH2      -16.7150  -15.0230   21.2830 C.ar  205  TRP205      0.0015
    100  N        -10.3820   -9.6420   27.8360 N.3   247  LEU247     -0.1245
    101  CA       -10.7410  -10.4550   26.6520 C.3   247  LEU247      0.1561
    102  C        -10.2890   -9.8340   25.3230 C.2   247  LEU247      0.2260
    103  O         -9.7370  -10.5260   24.4760 O.2   247  LEU247     -0.2867
    104  CB       -12.2470  -10.6640   26.5710 C.3   247  LEU247      0.0270
    105  CG       -12.7250  -11.5450   25.4230 C.3   247  LEU247      0.0019
    106  CD1      -12.1840  -12.9840   25.6190 C.3   247  LEU247      0.0001
    107  CD2      -14.2760  -11.5900   25.3290 C.3   247  LEU247      0.0001
@<TRIPOS>BOND
     1    50    51    1
     2    50    49    1
     3    49    48    1
     4    52    53    1
     5    46    45    1
     6    46    47    2
     7    48    45    1
     8    54    53    1
     9    54    55    2
    10    45    44    1
    11    53    56    1
    12    63    64    1
    13    42    43    1
    14    42    41    1
    15    56    57    1
    16    43    37    1
    17    41    38    1
    18    64    65    1
    19    64    67    1
    20    58    57   ar
    21    58    60   ar
    22    40    39    2
    23    57    59   ar
    24    65    66    2
    25    39    38    1
    26    60    62   ar
    27    67    68    1
    28    37    38    1
    29    37    30   am
    30    59    61   ar
    31    62    61   ar
    32    30    29    1
    33    30    31    2
    34    29    28    1
    35    29    32    1
    36    68    70   ar
    37    68    69   ar
    38    70    72   ar
    39    33    32    1
    40    33    34    1
    41     3     4    2
    42     3     2    1
    43    69    71   ar
    44    23    22    2
    45    72    73   ar
    46     2     1    1
    47     2     5    1
    48    34    35    2
    49    34    36   am
    50    71    73   ar
    51    22    21    1
    52     9     7   ar
    53     9    11   ar
    54     7     6   ar
    55    73    74    1
    56    11    10   ar
    57     6     5    1
    58     6     8   ar
    59    10     8   ar
    60    21    24    1
    61    21    20    1
    62    19    17   ar
    63    24    25    1
    64    97    99   ar
    65    97    95   ar
    66    99    98   ar
    67    27    26    1
    68    17    16    1
    69    17    18   ar
    70    16    13    1
    71    15    14    2
    72    95    94   ar
    73    95    93   ar
    74    94    92   ar
    75    25    26    1
    76    98    96   ar
    77    14    13    1
    78    13    12    1
    79    93    96   ar
    80    93    91   ar
    81    92    91   ar
    82    91    90    1
    83   103   102    2
    84   102   101    1
    85   107   105    1
    86   105   106    1
    87   105   104    1
    88    86    87    1
    89    90    87    1
    90    87    88    1
    91    78    77    2
    92   104   101    1
    93   101   100    1
    94    77    76    1
    95    77    79   am
    96    76    75    1
    97    88    89    2
    98    79    80    1
    99    83    85    1
   100    83    80    1
   101    83    84    1
   102    80    81    1
   103    81    82    2
