@<TRIPOS>MOLECULE
tmp/3bmqD01.pdb
 136 132 0 0 0
SMALL
GASTEIGER

@<TRIPOS>ATOM
      1  N        -31.5190   -9.3450   33.2010 N.3    13  ARG13      -0.1245
      2  CA       -30.1040   -9.4230   32.8660 C.3    13  ARG13       0.1563
      3  C        -29.3450   -8.1510   33.2560 C.2    13  ARG13       0.2260
      4  O        -29.5060   -7.6660   34.3930 O.2    13  ARG13      -0.2867
      5  CB       -29.9940   -9.8270   31.3930 C.3    13  ARG13       0.0307
      6  CG       -30.4270  -11.2870   31.2110 C.3    13  ARG13       0.0489
      7  CD       -30.6080  -11.7110   29.7640 C.3    13  ARG13       0.2205
      8  NE       -29.4070  -11.5490   28.9470 N.pl3  13  ARG13      -0.0865
      9  CZ       -28.4230  -12.4510   28.8090 C.cat  13  ARG13       0.5346
     10  NH1      -28.4260  -13.5880   29.4570 N.pl3  13  ARG13       0.1354
     11  NH2      -27.4260  -12.2000   27.9920 N.pl3  13  ARG13       0.1354
     12  N        -30.9880   -3.8770   23.4660 N.3    94  SER94      -0.1217
     13  CA       -30.1850   -4.2840   22.3210 C.3    94  SER94       0.1889
     14  C        -30.7370   -5.5740   21.6850 C.2    94  SER94       0.2288
     15  O        -30.9870   -6.5810   22.3790 O.2    94  SER94      -0.2866
     16  CB       -28.7590   -4.5740   22.7890 C.3    94  SER94       0.2089
     17  OG       -27.9420   -5.1730   21.7550 O.3    94  SER94      -0.2183
     18  N        -29.6930   -8.5680   19.0830 N.3    96  PHE96      -0.1241
     19  CA       -28.4200   -9.2300   18.8860 C.3    96  PHE96       0.1605
     20  C        -28.6330  -10.5740   18.2100 C.2    96  PHE96       0.2264
     21  O        -29.2110  -11.4870   18.8090 O.2    96  PHE96      -0.2867
     22  CB       -27.6740   -9.4200   20.2370 C.3    96  PHE96       0.0534
     23  CG       -26.4110  -10.2410   20.1390 C.ar   96  PHE96      -0.0203
     24  CD1      -25.2090   -9.6700   19.7480 C.ar   96  PHE96      -0.0042
     25  CD2      -26.4300  -11.5950   20.4970 C.ar   96  PHE96      -0.0042
     26  CE1      -24.0220  -10.4160   19.6730 C.ar   96  PHE96      -0.0003
     27  CE2      -25.2960  -12.3610   20.4290 C.ar   96  PHE96      -0.0003
     28  CZ       -24.0850  -11.8030   20.0450 C.ar   96  PHE96      -0.0000
     29  N        -21.9760   -0.3580   25.3210 N.3   145  CYS145     -0.1221
     30  CA       -21.2200   -0.5990   24.1470 C.3   145  CYS145      0.1808
     31  C        -20.7910   -2.0800   24.1010 C.2   145  CYS145      0.2601
     32  O        -21.5260   -2.9500   24.5360 O.2   145  CYS145     -0.2717
     33  CB       -20.0670    0.4030   24.1340 C.3   145  CYS145      0.0970
     34  SG       -20.6300    2.1360   23.9820 S.3   145  CYS145     -0.0800
     35  N        -19.6340   -2.3670   23.4890 N.am  146  ASP146     -0.1973
     36  CA       -19.1820   -3.7290   23.2520 C.3   146  ASP146      0.1709
     37  C        -17.6710   -3.7120   23.1360 C.2   146  ASP146      0.2293
     38  O        -17.1400   -3.1200   22.2220 O.2   146  ASP146     -0.2864
     39  CB       -19.8100   -4.2920   21.9690 C.3   146  ASP146      0.1436
     40  CG       -19.5060   -5.7670   21.7550 C.2   146  ASP146      0.3671
     41  OD1      -18.4800   -6.2530   22.2880 O.co2 146  ASP146     -0.2456
     42  OD2      -20.2940   -6.4670   21.0620 O.co2 146  ASP146     -0.2456
     43  N        -22.0380  -11.1050   12.1440 N.3   155  PHE155     -0.1241
     44  CA       -22.7760  -10.1190   12.9620 C.3   155  PHE155      0.1605
     45  C        -22.6000   -8.6810   12.4400 C.2   155  PHE155      0.2264
     46  O        -22.5440   -7.7170   13.2420 O.2   155  PHE155     -0.2867
     47  CB       -22.3950  -10.2140   14.4410 C.3   155  PHE155      0.0534
     48  CG       -23.1090  -11.3270   15.2000 C.ar  155  PHE155     -0.0203
     49  CD1      -22.6920  -12.6470   15.0850 C.ar  155  PHE155     -0.0042
     50  CD2      -24.1710  -11.0260   16.0150 C.ar  155  PHE155     -0.0042
     51  CE1      -23.3470  -13.6650   15.7570 C.ar  155  PHE155     -0.0003
     52  CE2      -24.8290  -12.0360   16.7170 C.ar  155  PHE155     -0.0003
     53  CZ       -24.4340  -13.3570   16.5440 C.ar  155  PHE155     -0.0000
     54  N        -25.2760   -5.9260   13.6310 N.3   158  TYR158     -0.1241
     55  CA       -25.0850   -5.7100   15.0570 C.3   158  TYR158      0.1605
     56  C        -23.8260   -4.8220   15.2970 C.2   158  TYR158      0.2264
     57  O        -23.8980   -3.8270   16.0230 O.2   158  TYR158     -0.2867
     58  CB       -25.0130   -7.0590   15.8000 C.3   158  TYR158      0.0534
     59  CG       -24.5010   -6.8850   17.2030 C.ar  158  TYR158     -0.0201
     60  CD1      -25.3240   -6.3660   18.2230 C.ar  158  TYR158     -0.0009
     61  CD2      -23.1260   -7.0810   17.4880 C.ar  158  TYR158     -0.0009
     62  CE1      -24.8100   -6.0880   19.5120 C.ar  158  TYR158      0.0417
     63  CE2      -22.6240   -6.8030   18.7280 C.ar  158  TYR158      0.0417
     64  CZ       -23.4560   -6.2930   19.7490 C.ar  158  TYR158      0.1957
     65  OH       -22.9340   -6.0450   21.0040 O.3   158  TYR158     -0.2866
     66  N        -23.2960   -1.0480   17.0190 N.3   162  LYS162     -0.1245
     67  CA       -22.4730   -0.7710   18.1930 C.3   162  LYS162      0.1561
     68  C        -21.3650    0.2510   17.8640 C.2   162  LYS162      0.2260
     69  O        -21.0200    1.0770   18.6700 O.2   162  LYS162     -0.2867
     70  CB       -21.8550   -2.0250   18.7850 C.3   162  LYS162      0.0271
     71  CG       -22.8950   -2.8970   19.5930 C.3   162  LYS162      0.0035
     72  CD       -23.6470   -2.1190   20.6770 C.3   162  LYS162      0.0206
     73  CE       -24.2650   -3.0300   21.6910 C.3   162  LYS162      0.1093
     74  NZ       -25.1550   -2.3660   22.6320 N.3   162  LYS162     -0.1314
     75  N        -17.1710   -7.3000   27.6870 N.3   189  GLY189     -0.1210
     76  CA       -16.6640   -8.3430   26.7990 C.3   189  GLY189      0.1956
     77  C        -17.6730   -9.4830   26.7970 C.2   189  GLY189      0.2612
     78  O        -18.6420   -9.4810   26.0290 O.2   189  GLY189     -0.2717
     79  N        -17.4140  -10.4880   27.5910 N.am  190  VAL190     -0.1965
     80  CA       -18.4260  -11.5250   27.8450 C.3   190  VAL190      0.1727
     81  C        -18.9630  -11.3190   29.2520 C.2   190  VAL190      0.2617
     82  O        -18.2340  -11.4050   30.2500 O.2   190  VAL190     -0.2715
     83  CB       -17.9190  -12.9830   27.6570 C.3   190  VAL190      0.0290
     84  CG1      -16.8140  -13.3280   28.6400 C.3   190  VAL190      0.0023
     85  CG2      -19.0920  -14.0090   27.8200 C.3   190  VAL190      0.0023
     86  N        -20.2660  -11.0430   29.3140 N.am  191  SER191     -0.1936
     87  CA       -20.9910  -10.9810   30.5610 C.3   191  SER191      0.2055
     88  C        -22.0200  -12.1030   30.4440 C.2   191  SER191      0.2643
     89  O        -21.6930  -13.1690   29.9440 O.2   191  SER191     -0.2714
     90  CB       -21.6150   -9.5980   30.7550 C.3   191  SER191      0.2130
     91  OG       -22.2990   -9.4530   31.9820 O.3   191  SER191     -0.2179
     92  N        -23.2520  -11.8520   30.8440 N.am  192  LEU192     -0.1963
     93  CA       -24.2730  -12.8960   30.8610 C.3   192  LEU192      0.1728
     94  C        -24.4410  -13.5420   29.4870 C.2   192  LEU192      0.2616
     95  O        -24.7280  -12.8740   28.4900 O.2   192  LEU192     -0.2715
     96  CB       -25.6040  -12.3580   31.3770 C.3   192  LEU192      0.0311
     97  CG       -25.5920  -11.8430   32.8220 C.3   192  LEU192      0.0022
     98  CD1      -27.0230  -11.4600   33.2940 C.3   192  LEU192      0.0001
     99  CD2      -24.9820  -12.8210   33.8070 C.3   192  LEU192      0.0001
    100  N        -24.2810  -14.8620   29.4430 N.am  193  LEU193     -0.1964
    101  CA       -24.3000  -15.5660   28.1610 C.3   193  LEU193      0.1713
    102  C        -25.7560  -15.7450   27.7150 C.2   193  LEU193      0.2458
    103  O        -26.6350  -15.7240   28.5380 O.2   193  LEU193     -0.2730
    104  CB       -23.5780  -16.9160   28.2650 C.3   193  LEU193      0.0310
    105  CG       -22.0720  -16.6860   28.5470 C.3   193  LEU193      0.0022
    106  CD1      -21.3680  -17.8330   29.1980 C.3   193  LEU193      0.0001
    107  CD2      -21.4080  -16.2560   27.2030 C.3   193  LEU193      0.0001
    108  N        -25.9870  -15.8500   26.4040 N.am  194  PRO194     -0.2727
    109  CA       -27.3710  -15.9840   25.9650 C.3   194  PRO194      0.1402
    110  C        -28.1040  -17.1760   26.5970 C.2   194  PRO194      0.2269
    111  O        -27.5250  -18.2640   26.7810 O.2   194  PRO194     -0.2865
    112  CB       -27.2530  -16.1030   24.4160 C.3   194  PRO194      0.0296
    113  CG       -25.8800  -15.7640   24.0660 C.3   194  PRO194      0.0237
    114  CD       -25.0260  -15.9150   25.2870 C.3   194  PRO194      0.0939
    115  N        -27.9160  -20.1410   24.3570 N.3   197  MET197     -0.1245
    116  CA       -26.6170  -20.8110   24.1790 C.3   197  MET197      0.1570
    117  C        -26.4420  -22.0810   25.0110 C.2   197  MET197      0.2261
    118  O        -26.7570  -22.1110   26.2000 O.2   197  MET197     -0.2867
    119  CB       -25.4790  -19.8510   24.5180 C.3   197  MET197      0.0387
    120  CG       -24.0970  -20.4240   24.3080 C.3   197  MET197      0.0595
    121  SD       -22.8250  -19.1750   24.5550 S.3   197  MET197     -0.1393
    122  CE       -22.9840  -18.2040   23.0410 C.3   197  MET197      0.0692
    123  N        -16.5010  -19.8480   25.7670 N.3   205  TRP205     -0.1241
    124  CA       -16.3620  -18.3680   25.9660 C.3   205  TRP205      0.1605
    125  C        -15.6880  -18.0300   27.3030 C.2   205  TRP205      0.2264
    126  O        -14.7260  -17.2570   27.3530 O.2   205  TRP205     -0.2867
    127  CB       -17.7190  -17.6790   25.8420 C.3   205  TRP205      0.0550
    128  CG       -18.0650  -17.4930   24.4010 C.ar  205  TRP205      0.0003
    129  CD1      -18.9590  -18.2220   23.6490 C.ar  205  TRP205      0.0946
    130  CD2      -17.4490  -16.5630   23.5050 C.ar  205  TRP205      0.0152
    131  NE1      -18.9500  -17.7630   22.3410 N.ar  205  TRP205     -0.2442
    132  CE2      -18.0450  -16.7420   22.2340 C.ar  205  TRP205      0.0810
    133  CE3      -16.4710  -15.5710   23.6600 C.ar  205  TRP205      0.0012
    134  CZ2      -17.6620  -15.9860   21.1100 C.ar  205  TRP205      0.0191
    135  CZ3      -16.1150  -14.7920   22.5360 C.ar  205  TRP205      0.0001
    136  CH2      -16.7150  -15.0230   21.2830 C.ar  205  TRP205      0.0015
@<TRIPOS>BOND
     1    43    44    1
     2    45    44    1
     3    45    46    2
     4    44    47    1
     5    54    55    1
     6    47    48    1
     7    55    56    1
     8    55    58    1
     9    49    48   ar
    10    49    51   ar
    11    48    50   ar
    12    56    57    2
    13    51    53   ar
    14    58    59    1
    15    50    52   ar
    16    53    52   ar
    17    66    67    1
    18    59    61   ar
    19    59    60   ar
    20    61    63   ar
    21    68    67    1
    22    68    69    2
    23    67    70    1
    24    20    21    2
    25    20    19    1
    26    60    62   ar
    27    63    64   ar
    28    70    71    1
    29    19    18    1
    30    19    22    1
    31    62    64   ar
    32    71    72    1
    33    26    24   ar
    34    26    28   ar
    35    24    23   ar
    36    64    65    1
    37    28    27   ar
    38    23    22    1
    39    23    25   ar
    40    27    25   ar
    41    72    73    1
    42    42    40   ar
    43   134   136   ar
    44   134   132   ar
    45   136   135   ar
    46    14    13    1
    47    14    15    2
    48    73    74    1
    49    40    39    1
    50    40    41   ar
    51    17    16    1
    52    39    36    1
    53    38    37    2
    54   132   131   ar
    55   132   130   ar
    56    13    16    1
    57    13    12    1
    58   131   129   ar
    59   135   133   ar
    60   122   121    1
    61    37    36    1
    62    36    35    1
    63    35    31   am
    64   130   133   ar
    65   130   128   ar
    66   129   128   ar
    67    34    33    1
    68   113   112    1
    69   113   114    1
    70    31    30    1
    71    31    32    2
    72    33    30    1
    73    30    29    1
    74   116   115    1
    75   116   119    1
    76   116   117    1
    77   120   119    1
    78   120   121    1
    79   128   127    1
    80   112   109    1
    81   117   118    2
    82   114   108    1
    83   123   124    1
    84   127   124    1
    85   109   108    1
    86   109   110    1
    87   124   125    1
    88    78    77    2
    89   108   102   am
    90   110   111    2
    91    77    76    1
    92    77    79   am
    93    76    75    1
    94   107   105    1
    95   125   126    2
    96    79    80    1
    97    83    85    1
    98    83    80    1
    99    83    84    1
   100   102   101    1
   101   102   103    2
   102    80    81    1
   103    11     9    1
   104   101   104    1
   105   101   100    1
   106   104   105    1
   107    95    94    2
   108   105   106    1
   109     9     8    2
   110     9    10    1
   111     8     7    1
   112    81    86   am
   113    81    82    2
   114    86    87    1
   115   100    94   am
   116    94    93    1
   117     7     6    1
   118    89    88    2
   119    88    87    1
   120    88    92   am
   121    87    90    1
   122    90    91    1
   123    92    93    1
   124    93    96    1
   125     6     5    1
   126    96    97    1
   127     5     2    1
   128    97    98    1
   129    97    99    1
   130     2     1    1
   131     2     3    1
   132     3     4    2
