@<TRIPOS>MOLECULE
tmp/3bmwA01.pdb
 240 235 0 0 0
SMALL
GASTEIGER

@<TRIPOS>ATOM
      1  N         48.5490   -5.6250   -0.4130 N.3    47  LYS47      -0.1245
      2  CA        47.2180   -5.2450    0.0750 C.3    47  LYS47       0.1561
      3  C         46.3590   -6.4460    0.4980 C.2    47  LYS47       0.2260
      4  O         45.1500   -6.3160    0.6830 O.2    47  LYS47      -0.2867
      5  CB        46.4790   -4.3520   -0.9320 C.3    47  LYS47       0.0271
      6  CG        47.1640   -3.0050   -1.1780 C.3    47  LYS47       0.0035
      7  CD        46.2720   -2.0790   -2.0060 C.3    47  LYS47       0.0206
      8  CE        46.9580   -0.7400   -2.2660 C.3    47  LYS47       0.1093
      9  NZ        46.0860    0.1730   -3.0440 N.3    47  LYS47      -0.1314
     10  N         42.8090   -5.6130    5.3780 N.3    98  TYR98      -0.1227
     11  CA        43.8860   -6.0060    6.3130 C.3    98  TYR98       0.1736
     12  C         44.2410   -4.8940    7.3140 C.2    98  TYR98       0.2595
     13  O         44.7020   -5.1730    8.4200 O.2    98  TYR98      -0.2718
     14  CB        45.1500   -6.4190    5.5400 C.3    98  TYR98       0.0548
     15  CG        45.8970   -5.2300    4.9800 C.ar   98  TYR98      -0.0200
     16  CD1       45.5470   -4.6830    3.7460 C.ar   98  TYR98      -0.0009
     17  CD2       46.9180   -4.6190    5.7130 C.ar   98  TYR98      -0.0009
     18  CE1       46.2080   -3.5640    3.2410 C.ar   98  TYR98       0.0417
     19  CE2       47.5860   -3.5020    5.2210 C.ar   98  TYR98       0.0417
     20  CZ        47.2220   -2.9790    3.9890 C.ar   98  TYR98       0.1957
     21  OH        47.8770   -1.8800    3.4910 O.3    98  TYR98      -0.2866
     22  N         44.0250   -3.6460    6.8990 N.am   99  HIS99      -0.1975
     23  CA        44.4200   -2.4640    7.6750 C.3    99  HIS99       0.1656
     24  C         43.4050   -2.0740    8.7530 C.2    99  HIS99       0.2291
     25  O         43.7130   -1.2600    9.6270 O.2    99  HIS99      -0.2864
     26  CB        44.6350   -1.2870    6.7280 C.3    99  HIS99       0.0771
     27  CG        43.5320   -1.1230    5.7370 C.ar   99  HIS99       0.0820
     28  ND1       42.2620   -0.7300    6.1000 N.ar   99  HIS99      -0.2267
     29  CD2       43.4920   -1.3500    4.4020 C.ar   99  HIS99       0.1154
     30  CE1       41.4930   -0.6980    5.0250 C.ar   99  HIS99       0.1986
     31  NE2       42.2150   -1.0710    3.9840 N.ar   99  HIS99      -0.2212
     32  N         40.4880   -0.4230    8.6050 N.3   101  TYR101     -0.1227
     33  CA        39.7580    0.8540    8.4900 C.3   101  TYR101      0.1736
     34  C         38.4370    0.7940    7.7140 C.2   101  TYR101      0.2595
     35  O         37.7870    1.8370    7.4980 O.2   101  TYR101     -0.2718
     36  CB        40.6580    1.9250    7.8670 C.3   101  TYR101      0.0548
     37  CG        41.7720    2.4090    8.7680 C.ar  101  TYR101     -0.0200
     38  CD1       41.5090    3.2650    9.8420 C.ar  101  TYR101     -0.0009
     39  CD2       43.0950    2.0220    8.5350 C.ar  101  TYR101     -0.0009
     40  CE1       42.5470    3.7240   10.6690 C.ar  101  TYR101      0.0417
     41  CE2       44.1310    2.4680    9.3500 C.ar  101  TYR101      0.0417
     42  CZ        43.8490    3.3130   10.4140 C.ar  101  TYR101      0.1957
     43  OH        44.8720    3.7500   11.2230 O.3   101  TYR101     -0.2866
     44  N         38.0500   -0.4100    7.2880 N.am  102  TRP102     -0.1976
     45  CA        36.8250   -0.6210    6.5130 C.3   102  TRP102      0.1640
     46  C         35.8010   -1.4230    7.3220 C.2   102  TRP102      0.2290
     47  O         35.5270   -2.5960    7.0300 O.2   102  TRP102     -0.2864
     48  CB        37.1260   -1.3290    5.1850 C.3   102  TRP102      0.0576
     49  CG        38.0350   -0.5810    4.2310 C.ar  102  TRP102      0.0006
     50  CD1       38.3710    0.7480    4.2690 C.ar  102  TRP102      0.0946
     51  CD2       38.6920   -1.1260    3.0790 C.ar  102  TRP102      0.0152
     52  NE1       39.2090    1.0540    3.2210 N.ar  102  TRP102     -0.2442
     53  CE2       39.4200   -0.0750    2.4750 C.ar  102  TRP102      0.0810
     54  CE3       38.7420   -2.4030    2.5010 C.ar  102  TRP102      0.0012
     55  CZ2       40.1910   -0.2610    1.3260 C.ar  102  TRP102      0.0191
     56  CZ3       39.5090   -2.5890    1.3560 C.ar  102  TRP102      0.0001
     57  CH2       40.2260   -1.5210    0.7800 C.ar  102  TRP102      0.0015
     58  N         33.2010    6.4990    8.7770 N.3   141  HIS141     -0.1241
     59  CA        32.7450    5.7410    7.6190 C.3   141  HIS141      0.1621
     60  C         32.7200    4.2520    7.9030 C.2   141  HIS141      0.2264
     61  O         33.2970    3.7790    8.8880 O.2   141  HIS141     -0.2867
     62  CB        33.6860    6.0030    6.4430 C.3   141  HIS141      0.0745
     63  CG        35.1240    5.7710    6.7820 C.ar  141  HIS141      0.0817
     64  ND1       35.9800    6.7950    7.1230 N.ar  141  HIS141     -0.2268
     65  CD2       35.8420    4.6260    6.8850 C.ar  141  HIS141      0.1154
     66  CE1       37.1710    6.2950    7.3990 C.ar  141  HIS141      0.1986
     67  NE2       37.1110    4.9810    7.2740 N.ar  141  HIS141     -0.2212
     68  N         34.4830    1.0960    1.4160 N.3   144  PRO144     -0.2116
     69  CA        34.3210    1.5730    0.0360 C.3   144  PRO144      0.1372
     70  C         32.9600    1.1950   -0.5540 C.2   144  PRO144      0.2244
     71  O         32.5030    0.0580   -0.3900 O.2   144  PRO144     -0.2868
     72  CB        35.4530    0.8650   -0.7130 C.3   144  PRO144      0.0268
     73  CG        36.4870    0.6300    0.3370 C.3   144  PRO144      0.0207
     74  CD        35.7030    0.2760    1.5640 C.3   144  PRO144      0.0892
     75  N         38.8250   18.0350   -0.4220 N.3   184  PHE184     -0.1241
     76  CA        39.6180   18.6600    0.6510 C.3   184  PHE184      0.1605
     77  C         39.7250   20.1900    0.5630 C.2   184  PHE184      0.2264
     78  O         40.5880   20.7870    1.2160 O.2   184  PHE184     -0.2867
     79  CB        41.0280   18.0370    0.7270 C.3   184  PHE184      0.0534
     80  CG        41.0270   16.5340    0.8100 C.ar  184  PHE184     -0.0203
     81  CD1       41.2160   15.7590   -0.3350 C.ar  184  PHE184     -0.0042
     82  CD2       40.8300   15.8930    2.0290 C.ar  184  PHE184     -0.0042
     83  CE1       41.2070   14.3660   -0.2640 C.ar  184  PHE184     -0.0003
     84  CE2       40.8200   14.5010    2.1110 C.ar  184  PHE184     -0.0003
     85  CZ        41.0100   13.7380    0.9600 C.ar  184  PHE184     -0.0000
     86  N         35.0500   10.6850    2.2200 N.3   195  LEU195     -0.1231
     87  CA        36.4990   10.5480    2.1510 C.3   195  LEU195      0.1693
     88  C         36.8030    9.4300    1.1580 C.2   195  LEU195      0.2592
     89  O         36.4940    8.2590    1.4120 O.2   195  LEU195     -0.2718
     90  CB        37.0830   10.2220    3.5320 C.3   195  LEU195      0.0284
     91  CG        38.5960    9.9730    3.6360 C.3   195  LEU195      0.0019
     92  CD1       39.3980   11.1840    3.1440 C.3   195  LEU195      0.0001
     93  CD2       38.9930    9.6090    5.0700 C.3   195  LEU195      0.0001
     94  N         37.4010    9.7980    0.0300 N.am  196  PHE196     -0.1962
     95  CA        37.6340    8.8630   -1.0700 C.3   196  PHE196      0.1771
     96  C         36.2850    8.2420   -1.4710 C.2   196  PHE196      0.2620
     97  O         35.3290    8.9850   -1.7070 O.2   196  PHE196     -0.2715
     98  CB        38.7020    7.8220   -0.6880 C.3   196  PHE196      0.0574
     99  CG        39.9630    8.4260   -0.1090 C.ar  196  PHE196     -0.0200
    100  CD1       40.6750    9.3980   -0.8120 C.ar  196  PHE196     -0.0042
    101  CD2       40.4370    8.0210    1.1380 C.ar  196  PHE196     -0.0042
    102  CE1       41.8440    9.9630   -0.2790 C.ar  196  PHE196     -0.0003
    103  CE2       41.6030    8.5790    1.6830 C.ar  196  PHE196     -0.0003
    104  CZ        42.3080    9.5530    0.9670 C.ar  196  PHE196     -0.0000
    105  N         36.2000    6.9140   -1.5450 N.am  197  ASP197     -0.1957
    106  CA        34.9270    6.2340   -1.8370 C.3   197  ASP197      0.1840
    107  C         34.3110    5.5780   -0.5970 C.2   197  ASP197      0.2621
    108  O         33.4340    4.7130   -0.7000 O.2   197  ASP197     -0.2715
    109  CB        35.0880    5.2220   -2.9830 C.3   197  ASP197      0.1450
    110  CG        36.1210    4.1400   -2.6880 C.2   197  ASP197      0.3671
    111  OD1       36.7520    4.1620   -1.6050 O.co2 197  ASP197     -0.2456
    112  OD2       36.3060    3.2620   -3.5630 O.co2 197  ASP197     -0.2456
    113  N         34.7700    5.9960    0.5750 N.am  198  LEU198     -0.1977
    114  CA        34.2820    5.4220    1.8260 C.3   198  LEU198      0.1596
    115  C         32.8930    5.9560    2.1390 C.2   198  LEU198      0.2287
    116  O         32.6770    7.1740    2.1300 O.2   198  LEU198     -0.2864
    117  CB        35.2560    5.7280    2.9670 C.3   198  LEU198      0.0297
    118  CG        36.6980    5.2430    2.7670 C.3   198  LEU198      0.0022
    119  CD1       37.6200    5.9280    3.7660 C.3   198  LEU198      0.0001
    120  CD2       36.8170    3.7230    2.8760 C.3   198  LEU198      0.0001
    121  N         42.7060    6.0960   19.4850 N.3   228  ARG228     -0.1245
    122  CA        43.1480    6.9640   18.3940 C.3   228  ARG228      0.1563
    123  C         41.9760    7.0710   17.4340 C.2   228  ARG228      0.2260
    124  O         41.5620    6.0740   16.8220 O.2   228  ARG228     -0.2867
    125  CB        44.4030    6.4110   17.7030 C.3   228  ARG228      0.0307
    126  CG        44.9550    7.2500   16.5430 C.3   228  ARG228      0.0489
    127  CD        44.2750    6.9190   15.2140 C.3   228  ARG228      0.2205
    128  NE        45.0520    7.3780   14.0610 N.pl3 228  ARG228     -0.0865
    129  CZ        44.6620    7.2510   12.7960 C.cat 228  ARG228      0.5346
    130  NH1       43.4900    6.6910   12.5060 N.pl3 228  ARG228      0.1354
    131  NH2       45.4420    7.6930   11.8150 N.pl3 228  ARG228      0.1354
    132  N         40.1390    8.0930   14.1560 N.3   230  ASP230     -0.1225
    133  CA        40.5060    8.2400   12.7540 C.3   230  ASP230      0.1805
    134  C         39.7710    9.4020   12.0710 C.2   230  ASP230      0.2597
    135  O         38.5780    9.6280   12.3090 O.2   230  ASP230     -0.2718
    136  CB        40.2260    6.9150   12.0290 C.3   230  ASP230      0.1424
    137  CG        40.6120    6.9460   10.5600 C.2   230  ASP230      0.3668
    138  OD1       41.8070    7.1210   10.2550 O.co2 230  ASP230     -0.2456
    139  OD2       39.7200    6.7640    9.7100 O.co2 230  ASP230     -0.2456
    140  N         40.5040   10.1370   11.2330 N.am  231  ALA231     -0.1979
    141  CA        39.9160   11.0960   10.2890 C.3   231  ALA231      0.1597
    142  C         39.0450   12.1730   10.9470 C.2   231  ALA231      0.2287
    143  O         37.9340   12.4560   10.4840 O.2   231  ALA231     -0.2864
    144  CB        39.1350   10.3440    9.1930 C.3   231  ALA231      0.0319
    145  N         39.2430   15.3620   11.0380 N.3   233  LYS233     -0.1231
    146  CA        38.9300   16.5290   10.2150 C.3   233  LYS233      0.1693
    147  C         37.6990   16.2990    9.3260 C.2   233  LYS233      0.2592
    148  O         37.1870   17.2410    8.7180 O.2   233  LYS233     -0.2718
    149  CB        40.1470   16.9800    9.3940 C.3   233  LYS233      0.0285
    150  CG        40.5190   16.1130    8.2230 C.3   233  LYS233      0.0035
    151  CD        41.8750   16.5270    7.6190 C.3   233  LYS233      0.0206
    152  CE        41.7640   17.7330    6.7070 C.3   233  LYS233      0.1093
    153  NZ        43.0300   17.9160    5.9190 N.3   233  LYS233     -0.1314
    154  N         37.2070   15.0550    9.2980 N.am  234  HIS234     -0.1976
    155  CA        36.1210   14.6480    8.3930 C.3   234  HIS234      0.1656
    156  C         34.7600   14.4350    9.0630 C.2   234  HIS234      0.2291
    157  O         33.7810   14.0120    8.4130 O.2   234  HIS234     -0.2864
    158  CB        36.5490   13.4180    7.5880 C.3   234  HIS234      0.0771
    159  CG        37.7530   13.6740    6.7410 C.ar  234  HIS234      0.0820
    160  ND1       37.7100   14.4950    5.6370 N.ar  234  HIS234     -0.2267
    161  CD2       39.0380   13.2660    6.8620 C.ar  234  HIS234      0.1154
    162  CE1       38.9130   14.5640    5.0970 C.ar  234  HIS234      0.1986
    163  NE2       39.7380   13.8310    5.8230 N.ar  234  HIS234     -0.2212
    164  N         43.3050   11.8850   14.6580 N.3   258  GLU258     -0.1245
    165  CA        44.1420   12.0960   13.4860 C.3   258  GLU258      0.1567
    166  C         43.5810   13.2190   12.6160 C.2   258  GLU258      0.2260
    167  O         42.6050   13.0190   11.8880 O.2   258  GLU258     -0.2867
    168  CB        44.2580   10.8200   12.6430 C.3   258  GLU258      0.0388
    169  CG        45.1700   11.0030   11.4250 C.3   258  GLU258      0.1160
    170  CD        44.5380   10.5820   10.1010 C.2   258  GLU258      0.3649
    171  OE1       43.2920   10.4240   10.0180 O.co2 258  GLU258     -0.2457
    172  OE2       45.2970   10.4370    9.1200 O.co2 258  GLU258     -0.2457
    173  N         45.0550   15.1450    9.7300 N.3   260  PHE260     -0.1241
    174  CA        46.2020   15.1710    8.8300 C.3   260  PHE260      0.1605
    175  C         46.5540   16.6040    8.4290 C.2   260  PHE260      0.2264
    176  O         45.6730   17.3730    8.0440 O.2   260  PHE260     -0.2867
    177  CB        45.9110   14.3300    7.5800 C.3   260  PHE260      0.0534
    178  CG        47.1480   13.8670    6.8490 C.ar  260  PHE260     -0.0203
    179  CD1       47.8770   14.7470    6.0470 C.ar  260  PHE260     -0.0042
    180  CD2       47.5740   12.5420    6.9530 C.ar  260  PHE260     -0.0042
    181  CE1       49.0250   14.3150    5.3730 C.ar  260  PHE260     -0.0003
    182  CE2       48.7130   12.1000    6.2800 C.ar  260  PHE260     -0.0003
    183  CZ        49.4410   12.9870    5.4920 C.ar  260  PHE260     -0.0000
    184  N         49.6580   18.6700    6.0370 N.3   262  GLY262     -0.1210
    185  CA        50.8280   18.5740    5.1740 C.3   262  GLY262      0.1956
    186  C         51.9700   19.4510    5.6540 C.2   262  GLY262      0.2612
    187  O         51.8530   20.1710    6.6500 O.2   262  GLY262     -0.2717
    188  N         53.0870   19.3730    4.9410 N.am  263  THR263     -0.1952
    189  CA        54.2380   20.2200    5.1980 C.3   263  THR263      0.1897
    190  C         53.8010   21.6830    5.1240 C.2   263  THR263      0.2313
    191  O         53.0990   22.0790    4.1890 O.2   263  THR263     -0.2863
    192  CB        55.3420   19.9230    4.1720 C.3   263  THR263      0.1794
    193  OG1       55.6460   18.5210    4.2150 O.3   263  THR263     -0.2208
    194  CG2       56.5900   20.7220    4.4660 C.3   263  THR263      0.0378
    195  N         51.5120   23.3140    6.4080 N.3   265  GLU265     -0.1245
    196  CA        50.0800   23.6140    6.4010 C.3   265  GLU265      0.1567
    197  C         49.6320   24.3300    7.6690 C.2   265  GLU265      0.2260
    198  O         49.9990   23.9340    8.7800 O.2   265  GLU265     -0.2867
    199  CB        49.2300   22.3590    6.1750 C.3   265  GLU265      0.0388
    200  CG        47.7210   22.6500    6.1890 C.3   265  GLU265      0.1160
    201  CD        46.8680   21.4730    5.7660 C.2   265  GLU265      0.3649
    202  OE1       47.4280   20.3820    5.5410 O.co2 265  GLU265     -0.2457
    203  OE2       45.6270   21.6420    5.6640 O.co2 265  GLU265     -0.2457
    204  N         51.7400    4.7970    8.9750 N.3   328  HIS328     -0.1226
    205  CA        51.2730    3.9150    7.9060 C.3   328  HIS328      0.1752
    206  C         50.7350    4.6480    6.6590 C.2   328  HIS328      0.2596
    207  O         50.3790    3.9990    5.6640 O.2   328  HIS328     -0.2718
    208  CB        50.1950    2.9970    8.4800 C.3   328  HIS328      0.0759
    209  CG        49.0330    3.7460    9.0470 C.ar  328  HIS328      0.0818
    210  ND1       49.1490    4.5960   10.1280 N.ar  328  HIS328     -0.2268
    211  CD2       47.7400    3.8080    8.6540 C.ar  328  HIS328      0.1154
    212  CE1       47.9710    5.1400   10.3830 C.ar  328  HIS328      0.1986
    213  NE2       47.1010    4.6820    9.5000 N.ar  328  HIS328     -0.2212
    214  N         50.6720    5.9840    6.7140 N.am  329  ASP329     -0.1974
    215  CA        50.2370    6.8120    5.5820 C.3   329  ASP329      0.1709
    216  C         51.3760    7.6530    4.9980 C.2   329  ASP329      0.2293
    217  O         51.1660    8.3850    4.0290 O.2   329  ASP329     -0.2864
    218  CB        49.1360    7.7940    6.0030 C.3   329  ASP329      0.1436
    219  CG        47.8220    7.1210    6.3550 C.2   329  ASP329      0.3671
    220  OD1       47.5470    5.9870    5.8880 O.co2 329  ASP329     -0.2456
    221  OD2       47.0450    7.7720    7.0940 O.co2 329  ASP329     -0.2456
    222  N         51.8460    4.1610    0.7360 N.3   371  ASP371     -0.1239
    223  CA        50.9320    3.0730    1.0780 C.3   371  ASP371      0.1674
    224  C         50.7770    2.2310   -0.1970 C.2   371  ASP371      0.2266
    225  O         50.4420    2.7840   -1.2460 O.2   371  ASP371     -0.2867
    226  CB        49.6040    3.7270    1.5070 C.3   371  ASP371      0.1410
    227  CG        48.4600    2.7480    1.6960 C.2   371  ASP371      0.3668
    228  OD1       48.6680    1.5170    1.6980 O.co2 371  ASP371     -0.2456
    229  OD2       47.3220    3.2460    1.8590 O.co2 371  ASP371     -0.2456
    230  N         54.0640   -0.6320    4.6720 N.3   375  ARG375     -0.1245
    231  CA        53.3710   -1.5740    5.5630 C.3   375  ARG375      0.1563
    232  C         53.8350   -3.0190    5.3560 C.2   375  ARG375      0.2260
    233  O         53.0490   -3.9620    5.4930 O.2   375  ARG375     -0.2867
    234  CB        51.8560   -1.4760    5.3590 C.3   375  ARG375      0.0307
    235  CG        51.2840   -0.0950    5.6430 C.3   375  ARG375      0.0489
    236  CD        49.8720    0.0050    5.1150 C.3   375  ARG375      0.2205
    237  NE        49.3400    1.3630    5.2010 N.pl3 375  ARG375     -0.0865
    238  CZ        48.0570    1.6650    5.0370 C.cat 375  ARG375      0.5346
    239  NH1       47.6490    2.9300    5.1310 N.pl3 375  ARG375      0.1354
    240  NH2       47.1790    0.7000    4.7760 N.pl3 375  ARG375      0.1354
@<TRIPOS>BOND
     1   112   110   ar
     2     9     8    1
     3   109   110    1
     4   109   106    1
     5   110   111   ar
     6     8     7    1
     7     7     6    1
     8   106   105    1
     9   106   107    1
    10    97    96    2
    11   105    96   am
    12    96    95    1
    13   225   224    2
    14     6     5    1
    15    95    98    1
    16    95    94    1
    17     5     2    1
    18   100   102   ar
    19   100    99   ar
    20    72    69    1
    21    72    73    1
    22   108   107    2
    23    98    99    1
    24   107   113   am
    25    70    71    2
    26    70    69    1
    27    75    76    1
    28     1     2    1
    29    81    83   ar
    30    81    80   ar
    31   102   104   ar
    32    83    85   ar
    33   224   223    1
    34    99   101   ar
    35    94    88   am
    36    69    68    1
    37     2     3    1
    38    73    74    1
    39     3     4    2
    40    77    76    1
    41    77    78    2
    42   113   114    1
    43    76    79    1
    44    79    80    1
    45   222   223    1
    46    57    55   ar
    47    57    56   ar
    48    80    82   ar
    49    85    84   ar
    50   104   103   ar
    51   223   226    1
    52   101   103   ar
    53    88    89    2
    54    88    87    1
    55    55    53   ar
    56    56    54   ar
    57    68    74    1
    58   226   227    1
    59   227   228   ar
    60   227   229   ar
    61   114   115    1
    62   114   117    1
    63    82    84   ar
    64   116   115    2
    65    87    86    1
    66    87    90    1
    67    53    51   ar
    68    53    52   ar
    69    54    51   ar
    70   118   120    1
    71   118   117    1
    72   118   119    1
    73    51    49   ar
    74    92    91    1
    75    52    50   ar
    76    18    16   ar
    77    18    20   ar
    78    21    20    1
    79    90    91    1
    80    91    93    1
    81    16    15   ar
    82    31    29   ar
    83    31    30   ar
    84    20    19   ar
    85   217   216    2
    86   192   193    1
    87   192   194    1
    88   192   189    1
    89   191   190    2
    90    49    50   ar
    91    49    48    1
    92    29    27   ar
    93   230   231    1
    94   240   238    1
    95   188   189    1
    96   188   186   am
    97    15    14    1
    98    15    17   ar
    99   216   215    1
   100    30    28   ar
   101   238   239    1
   102   238   237    2
   103   162   160   ar
   104   162   163   ar
   105   236   237    1
   106   236   235    1
   107   190   189    1
   108   185   186    1
   109   185   184    1
   110    48    45    1
   111    19    17   ar
   112   232   233    2
   113   232   231    1
   114   234   231    1
   115   234   235    1
   116   181   183   ar
   117   181   179   ar
   118    10    11    1
   119   183   182   ar
   120    14    11    1
   121   202   201   ar
   122   215   218    1
   123   215   214    1
   124   160   159   ar
   125   186   187    2
   126   203   201   ar
   127   207   206    2
   128    27    28   ar
   129    27    26    1
   130   201   200    1
   131   163   161   ar
   132   220   219   ar
   133   153   152    1
   134   218   219    1
   135   179   178   ar
   136   199   200    1
   137   199   196    1
   138   182   180   ar
   139    11    12    1
   140   219   221   ar
   141   196   195    1
   142   196   197    1
   143    62    63    1
   144    62    59    1
   145    45    44    1
   146    45    46    1
   147   206   214   am
   148   206   205    1
   149   152   151    1
   150    26    23    1
   151   159   161   ar
   152   159   158    1
   153    63    65   ar
   154    63    64   ar
   155   178   180   ar
   156   178   177    1
   157    65    67   ar
   158    22    12   am
   159    22    23    1
   160    47    46    2
   161    64    66   ar
   162    67    66   ar
   163    44    34   am
   164    12    13    2
   165    35    34    2
   166   177   174    1
   167   158   155    1
   168   151   150    1
   169    59    60    1
   170    59    58    1
   171   197   198    2
   172    23    24    1
   173    34    33    1
   174    36    33    1
   175    36    37    1
   176    60    61    2
   177   205   208    1
   178   205   204    1
   179   176   175    2
   180   150   149    1
   181   155   156    1
   182   155   154    1
   183   157   156    2
   184   175   174    1
   185   208   209    1
   186    33    32    1
   187    39    37   ar
   188    39    41   ar
   189   211   209   ar
   190   211   213   ar
   191   148   147    2
   192    24    25    2
   193    37    38   ar
   194   174   173    1
   195   209   210   ar
   196   172   170   ar
   197   144   141    1
   198   154   147   am
   199   147   146    1
   200    41    42   ar
   201   149   146    1
   202   213   212   ar
   203   139   137   ar
   204    38    40   ar
   205   171   170   ar
   206   170   169    1
   207   210   212   ar
   208   146   145    1
   209   138   137   ar
   210   141   142    1
   211   141   140    1
   212    42    40   ar
   213    42    43    1
   214   143   142    2
   215   137   136    1
   216   140   134   am
   217   169   168    1
   218   131   129    1
   219   167   166    2
   220   136   133    1
   221   134   135    2
   222   134   133    1
   223   130   129    1
   224   166   165    1
   225   168   165    1
   226   133   132    1
   227   129   128    2
   228   165   164    1
   229   128   127    1
   230   127   126    1
   231   126   125    1
   232   124   123    2
   233   123   122    1
   234   125   122    1
   235   122   121    1
