@<TRIPOS>MOLECULE
tmp/3bmyA00.pdb
 136 124 0 0 0
SMALL
GASTEIGER

@<TRIPOS>ATOM
      1  N          7.3330    1.5460   11.5470 N.3    38  LEU38      -0.1245
      2  CA         7.7450    1.9600   12.8870 C.3    38  LEU38       0.1561
      3  C          7.8530    3.4880   13.0000 C.2    38  LEU38       0.2260
      4  O          7.4600    4.0650   14.0170 O.2    38  LEU38      -0.2867
      5  CB         9.0610    1.2840   13.2790 C.3    38  LEU38       0.0270
      6  CG         8.9640   -0.2350   13.4280 C.3    38  LEU38       0.0019
      7  CD1       10.3230   -0.8310   13.7570 C.3    38  LEU38       0.0001
      8  CD2        7.9500   -0.5990   14.4990 C.3    38  LEU38       0.0001
      9  N          4.4040    4.8820   13.2720 N.3    41  ASN41      -0.1225
     10  CA         3.8830    4.6910   14.6270 C.3    41  ASN41       0.1785
     11  C          4.4420    5.7640   15.5650 C.2    41  ASN41       0.2597
     12  O          3.7170    6.3330   16.3800 O.2    41  ASN41      -0.2718
     13  CB         4.2410    3.3030   15.1620 C.3    41  ASN41       0.1169
     14  CG         3.3650    2.2100   14.5860 C.2    41  ASN41       0.2627
     15  OD1        2.4720    2.4700   13.7850 O.2    41  ASN41      -0.2716
     16  ND2        3.6180    0.9740   14.9940 N.am   41  ASN41      -0.0877
     17  N          5.7340    6.0540   15.4260 N.am   42  SER42      -0.1952
     18  CA         6.3750    7.0830   16.2430 C.3    42  SER42       0.1924
     19  C          5.7540    8.4480   15.9720 C.2    42  SER42       0.2314
     20  O          5.5120    9.2160   16.8980 O.2    42  SER42      -0.2863
     21  CB         7.8680    7.1460   15.9470 C.3    42  SER42       0.2116
     22  OG         8.5220    5.9900   16.4340 O.3    42  SER42      -0.2180
     23  N          2.7450    9.0800   14.9780 N.3    44  ASP44      -0.1225
     24  CA         1.4300    9.0990   15.6190 C.3    44  ASP44       0.1805
     25  C          1.5740    9.3710   17.1160 C.2    44  ASP44       0.2597
     26  O          0.8000   10.1350   17.6940 O.2    44  ASP44      -0.2718
     27  CB         0.6910    7.7700   15.4000 C.3    44  ASP44       0.1424
     28  CG         0.2650    7.5560   13.9570 C.2    44  ASP44       0.3668
     29  OD1        0.2260    8.5420   13.1910 O.co2  44  ASP44      -0.2456
     30  OD2       -0.0430    6.3990   13.5940 O.co2  44  ASP44      -0.2456
     31  N          2.5730    8.7430   17.7440 N.am   45  ALA45      -0.1979
     32  CA         2.8200    8.9270   19.1830 C.3    45  ALA45       0.1597
     33  C          3.2160   10.3660   19.4980 C.2    45  ALA45       0.2287
     34  O          2.8400   10.9140   20.5340 O.2    45  ALA45      -0.2864
     35  CB         3.8890    7.9620   19.6760 C.3    45  ALA45       0.0319
     36  N          0.1500   12.5930   19.3800 N.3    48  LYS48      -0.1245
     37  CA        -0.6410   12.4680   20.6020 C.3    48  LYS48       0.1561
     38  C         -0.1240   13.3560   21.7290 C.2    48  LYS48       0.2260
     39  O         -0.9060   14.0380   22.3820 O.2    48  LYS48      -0.2867
     40  CB        -0.6960   11.0150   21.0680 C.3    48  LYS48       0.0271
     41  CG        -1.5260   10.1290   20.1550 C.3    48  LYS48       0.0035
     42  CD        -1.6980    8.7390   20.7390 C.3    48  LYS48       0.0206
     43  CE        -2.4320    7.8150   19.7780 C.3    48  LYS48       0.1093
     44  NZ        -1.5370    6.7670   19.2040 N.3    48  LYS48      -0.1314
     45  N         11.5560    7.4400   19.9200 N.3    83  ASP83      -0.1239
     46  CA        10.7390    8.6210   19.7140 C.3    83  ASP83       0.1674
     47  C         10.3950    9.2380   21.0600 C.2    83  ASP83       0.2266
     48  O         10.3800    8.5560   22.0970 O.2    83  ASP83      -0.2867
     49  CB         9.4740    8.3170   18.8940 C.3    83  ASP83       0.1410
     50  CG         8.4510    7.4660   19.6270 C.2    83  ASP83       0.3668
     51  OD1        7.9040    7.9250   20.6530 O.co2  83  ASP83      -0.2456
     52  OD2        8.1810    6.3470   19.1600 O.co2  83  ASP83      -0.2456
     53  N          4.1010   10.2230   23.2050 N.3    86  ILE86      -0.1231
     54  CA         3.3240   10.1080   24.4440 C.3    86  ILE86       0.1692
     55  C          3.7270    8.9230   25.3300 C.2    86  ILE86       0.2593
     56  O          3.4970    8.9520   26.5330 O.2    86  ILE86      -0.2718
     57  CB         1.8210   10.0310   24.1100 C.3    86  ILE86       0.0266
     58  CG1        0.9680   10.2940   25.3550 C.3    86  ILE86       0.0019
     59  CG2        1.4730    8.6950   23.4590 C.3    86  ILE86       0.0020
     60  CD1       -0.3760   10.9100   25.0390 C.3    86  ILE86       0.0001
     61  N          4.3040    7.8800   24.7450 N.am   87  GLY87      -0.1942
     62  CA         4.6830    6.7210   25.5360 C.3    87  GLY87       0.2014
     63  C          3.4730    5.8680   25.8960 C.2    87  GLY87       0.2638
     64  O          2.3370    6.2030   25.5440 O.2    87  GLY87      -0.2714
     65  N          3.7070    4.7490   26.5760 N.am   88  MET88      -0.1976
     66  CA         2.6170    3.8470   26.9370 C.3    88  MET88       0.1605
     67  C          2.6250    3.4810   28.4120 C.2    88  MET88       0.2287
     68  O          3.6830    3.2410   28.9990 O.2    88  MET88      -0.2864
     69  CB         2.7350    2.5500   26.1240 C.3    88  MET88       0.0413
     70  CG         2.3340    2.6740   24.6630 C.3    88  MET88       0.0598
     71  SD         2.4920    1.1110   23.7780 S.3    88  MET88      -0.1393
     72  CE         4.2410    1.1250   23.4190 C.3    88  MET88       0.0692
     73  N         -1.5110    0.0020   28.5170 N.3    92  ASP92      -0.1239
     74  CA        -1.3890    0.2970   27.0830 C.3    92  ASP92       0.1674
     75  C         -0.5450   -0.7790   26.4140 C.2    92  ASP92       0.2266
     76  O         -0.8960   -1.2980   25.3600 O.2    92  ASP92      -0.2867
     77  CB        -0.7010    1.6550   26.8410 C.3    92  ASP92       0.1410
     78  CG        -1.5980    2.8590   27.0600 C.2    92  ASP92       0.3668
     79  OD1       -2.8220    2.7390   26.8700 O.co2  92  ASP92      -0.2456
     80  OD2       -1.0640    3.9370   27.4060 O.co2  92  ASP92      -0.2456
     81  N         -2.5270   -2.9520   23.9940 N.3    96  ASN96      -0.1225
     82  CA        -2.2340   -2.5220   22.6150 C.3    96  ASN96       0.1785
     83  C         -1.2330   -3.4060   21.8700 C.2    96  ASN96       0.2597
     84  O         -1.2220   -3.3880   20.6440 O.2    96  ASN96      -0.2718
     85  CB        -1.7230   -1.0800   22.5850 C.3    96  ASN96       0.1169
     86  CG        -2.8240   -0.0560   22.7960 C.2    96  ASN96       0.2627
     87  OD1       -3.9900   -0.3080   22.4950 O.2    96  ASN96      -0.2716
     88  ND2       -2.4550    1.1160   23.3090 N.am   96  ASN96      -0.0877
     89  N         -0.3810   -4.1570   22.5670 N.am   97  LEU97      -0.1980
     90  CA         0.5930   -4.9990   21.8580 C.3    97  LEU97       0.1596
     91  C          0.2520   -6.4900   21.9240 C.2    97  LEU97       0.2287
     92  O          0.8910   -7.2970   21.2450 O.2    97  LEU97      -0.2864
     93  CB         2.0060   -4.7750   22.3960 C.3    97  LEU97       0.0297
     94  CG         2.6890   -3.4720   21.9620 C.3    97  LEU97       0.0022
     95  CD1        4.1730   -3.5180   22.2970 C.3    97  LEU97       0.0001
     96  CD2        2.4930   -3.2120   20.4700 C.3    97  LEU97       0.0001
     97  N         -3.7570   -1.0290   10.9710 N.3   125  GLY125     -0.1225
     98  CA        -3.3570   -0.6350   12.3190 C.3   125  GLY125      0.1811
     99  C         -2.4710   -1.6250   13.0610 C.2   125  GLY125      0.2280
    100  O         -2.3610   -1.5380   14.2860 O.2   125  GLY125     -0.2866
    101  N          0.8620   -2.4170   11.8450 N.3   127  GLY127     -0.1210
    102  CA         2.1790   -2.2870   11.2230 C.3   127  GLY127      0.1956
    103  C          3.3540   -2.5950   12.1440 C.2   127  GLY127      0.2611
    104  O          4.4340   -2.9420   11.6630 O.2   127  GLY127     -0.2717
    105  N          3.1640   -2.4770   13.4570 N.am  128  PHE128     -0.1976
    106  CA         4.2390   -2.7640   14.4050 C.3   128  PHE128      0.1639
    107  C          4.8130   -4.1660   14.1840 C.2   128  PHE128      0.2290
    108  O          6.0240   -4.3740   14.2640 O.2   128  PHE128     -0.2864
    109  CB         3.7340   -2.6410   15.8540 C.3   128  PHE128      0.0560
    110  CG         4.6650   -3.2530   16.8690 C.ar  128  PHE128     -0.0200
    111  CD1        5.7940   -2.5640   17.3010 C.ar  128  PHE128     -0.0042
    112  CD2        4.4160   -4.5130   17.3880 C.ar  128  PHE128     -0.0042
    113  CE1        6.6490   -3.1220   18.2320 C.ar  128  PHE128     -0.0003
    114  CE2        5.2700   -5.0740   18.3160 C.ar  128  PHE128     -0.0003
    115  CZ         6.3880   -4.3770   18.7390 C.ar  128  PHE128     -0.0000
    116  N         10.5980   -3.4910   23.5690 N.3   140  VAL140     -0.1245
    117  CA        10.0010   -2.1700   23.5780 C.3   140  VAL140      0.1561
    118  C         10.1100   -1.5670   24.9610 C.2   140  VAL140      0.2260
    119  O          9.6050   -2.1330   25.9320 O.2   140  VAL140     -0.2867
    120  CB         8.5260   -2.1980   23.1190 C.3   140  VAL140      0.0252
    121  CG1        7.8980   -0.8050   23.1840 C.3   140  VAL140      0.0019
    122  CG2        8.4200   -2.7730   21.7090 C.3   140  VAL140      0.0019
    123  N          9.0160    6.2180   23.5100 N.3   174  THR174     -0.1218
    124  CA         9.1290    4.7940   23.2550 C.3   174  THR174      0.1862
    125  C         10.3750    4.4580   22.4530 C.2   174  THR174      0.2287
    126  O         10.7530    5.1600   21.5040 O.2   174  THR174     -0.2866
    127  CB         7.8900    4.2970   22.5180 C.3   174  THR174      0.1770
    128  OG1        6.7320    4.4450   23.3230 O.3   174  THR174     -0.2211
    129  CG2        7.9660    2.8410   22.1180 C.3   174  THR174      0.0375
    130  N         12.0160    1.2300   20.3780 N.3   176  VAL176     -0.1245
    131  CA        11.8130   -0.0980   19.7980 C.3   176  VAL176      0.1561
    132  C         13.1640   -0.6540   19.3900 C.2   176  VAL176      0.2260
    133  O         13.8310   -0.0870   18.5230 O.2   176  VAL176     -0.2867
    134  CB        10.8690   -0.0780   18.5780 C.3   176  VAL176      0.0252
    135  CG1       10.7590   -1.4660   17.9470 C.3   176  VAL176      0.0019
    136  CG2        9.4990    0.4510   18.9790 C.3   176  VAL176      0.0019
@<TRIPOS>BOND
     1    97    98    1
     2   102   101    1
     3   102   103    1
     4     1     2    1
     5   104   103    2
     6   103   105   am
     7    98    99    1
     8     2     3    1
     9     2     5    1
    10     3     4    2
    11    99   100    2
    12    29    28   ar
    13     9    10    1
    14     5     6    1
    15     6     7    1
    16     6     8    1
    17   105   106    1
    18    30    28   ar
    19    15    14    2
    20    28    27    1
    21   107   108    2
    22   107   106    1
    23   106   109    1
    24    14    16   am
    25    14    13    1
    26    10    13    1
    27    10    11    1
    28    23    24    1
    29    27    24    1
    30    17    11   am
    31    17    18    1
    32    11    12    2
    33    24    25    1
    34   109   110    1
    35    21    18    1
    36    21    22    1
    37    19    18    1
    38    19    20    2
    39   110   111   ar
    40   110   112   ar
    41    25    26    2
    42    25    31   am
    43   111   113   ar
    44   112   114   ar
    45    31    32    1
    46   135   134    1
    47   113   115   ar
    48   114   115   ar
    49   133   132    2
    50   134   136    1
    51   134   131    1
    52    49    50    1
    53    49    46    1
    54    52    50   ar
    55    32    33    1
    56    32    35    1
    57    44    43    1
    58    36    37    1
    59   132   131    1
    60    33    34    2
    61    50    51   ar
    62    46    45    1
    63    46    47    1
    64    43    42    1
    65   131   130    1
    66    41    42    1
    67    41    40    1
    68    96    94    1
    69    37    40    1
    70    37    38    1
    71    84    83    2
    72    47    48    2
    73    92    91    2
    74   126   125    2
    75   122   120    1
    76    38    39    2
    77    90    91    1
    78    90    93    1
    79    90    89    1
    80    83    89   am
    81    83    82    1
    82    94    95    1
    83    94    93    1
    84   129   127    1
    85   125   124    1
    86    87    86    2
    87   127   124    1
    88   127   128    1
    89    85    82    1
    90    85    86    1
    91    82    81    1
    92    86    88   am
    93   120   121    1
    94   120   117    1
    95    53    54    1
    96   124   123    1
    97    72    71    1
    98    59    57    1
    99   116   117    1
   100   117   118    1
   101    71    70    1
   102    57    54    1
   103    57    58    1
   104    54    55    1
   105    70    69    1
   106    61    55   am
   107    61    62    1
   108   118   119    2
   109    60    58    1
   110    55    56    2
   111    76    75    2
   112    62    63    1
   113    64    63    2
   114    63    65   am
   115    69    66    1
   116    75    74    1
   117    65    66    1
   118    77    78    1
   119    77    74    1
   120    79    78   ar
   121    66    67    1
   122    78    80   ar
   123    74    73    1
   124    67    68    2
