@<TRIPOS>MOLECULE
tmp/3bmzB00.pdb
 115 107 0 0 0
SMALL
GASTEIGER

@<TRIPOS>ATOM
      1  N         -5.2150   45.3000   14.7540 N.3    13  TYR13      -0.1241
      2  CA        -4.2450   44.2400   14.5230 C.3    13  TYR13       0.1605
      3  C         -4.7950   42.9090   15.0050 C.2    13  TYR13       0.2264
      4  O         -5.6520   42.8640   15.8960 O.2    13  TYR13      -0.2867
      5  CB        -2.8850   44.5490   15.1840 C.3    13  TYR13       0.0534
      6  CG        -2.8870   44.4170   16.6840 C.ar   13  TYR13      -0.0201
      7  CD1       -2.7420   43.1810   17.2840 C.ar   13  TYR13      -0.0009
      8  CD2       -3.0610   45.5230   17.5040 C.ar   13  TYR13      -0.0009
      9  CE1       -2.7750   43.0450   18.6480 C.ar   13  TYR13       0.0417
     10  CE2       -3.0840   45.3980   18.8770 C.ar   13  TYR13       0.0417
     11  CZ        -2.9550   44.1580   19.4420 C.ar   13  TYR13       0.1957
     12  OH        -2.9760   44.0340   20.8010 O.3    13  TYR13      -0.2866
     13  N         -3.0140   39.2350   16.1980 N.3    15  SER15      -0.1217
     14  CA        -1.7160   38.7430   16.6160 C.3    15  SER15       0.1889
     15  C         -1.7880   37.2470   16.9020 C.2    15  SER15       0.2288
     16  O         -2.6870   36.7830   17.6010 O.2    15  SER15      -0.2866
     17  CB        -1.3000   39.5170   17.8580 C.3    15  SER15       0.2089
     18  OG        -0.0150   39.1400   18.2800 O.3    15  SER15      -0.2183
     19  N         -5.1840   36.9020   19.1710 N.3    27  THR27      -0.1218
     20  CA        -5.7630   38.0670   19.8300 C.3    27  THR27       0.1862
     21  C         -5.9010   39.2150   18.8550 C.2    27  THR27       0.2287
     22  O         -5.3220   39.2020   17.7720 O.2    27  THR27      -0.2866
     23  CB        -4.9140   38.5030   21.0340 C.3    27  THR27       0.1770
     24  OG1       -3.5950   38.8420   20.5930 O.3    27  THR27      -0.2211
     25  CG2       -4.8290   37.4070   22.0870 C.3    27  THR27       0.0375
     26  N         -3.7960   49.6960   17.1480 N.3    31  CYS31      -0.1235
     27  CA        -2.5060   50.3450   17.3040 C.3    31  CYS31       0.1677
     28  C         -2.4120   51.6200   16.4750 C.2    31  CYS31       0.2270
     29  O         -3.1070   51.7950   15.4760 O.2    31  CYS31      -0.2867
     30  CB        -1.3680   49.3730   16.9810 C.3    31  CYS31       0.0956
     31  SG        -1.2260   48.8800   15.2570 S.3    31  CYS31      -0.0801
     32  N          0.7110   54.5300   15.1710 N.3    33  PHE33      -0.1241
     33  CA         2.1120   54.9250   15.0230 C.3    33  PHE33       0.1605
     34  C          2.1770   56.3100   14.4090 C.2    33  PHE33       0.2264
     35  O          1.6960   56.5340   13.3100 O.2    33  PHE33      -0.2867
     36  CB         2.8530   53.9160   14.1480 C.3    33  PHE33       0.0534
     37  CG         3.1340   52.6340   14.8460 C.ar   33  PHE33      -0.0203
     38  CD1        2.1730   51.6370   14.9080 C.ar   33  PHE33      -0.0042
     39  CD2        4.3450   52.4330   15.4960 C.ar   33  PHE33      -0.0042
     40  CE1        2.4230   50.4610   15.5850 C.ar   33  PHE33      -0.0003
     41  CE2        4.5970   51.2650   16.1690 C.ar   33  PHE33      -0.0003
     42  CZ         3.6380   50.2760   16.2180 C.ar   33  PHE33      -0.0000
     43  N         -0.4650   50.8340   21.6520 N.3    42  ILE42      -0.1245
     44  CA        -1.0180   49.5100   21.3690 C.3    42  ILE42       0.1561
     45  C         -1.9810   49.1410   22.4890 C.2    42  ILE42       0.2260
     46  O         -1.5980   49.1610   23.6610 O.2    42  ILE42      -0.2867
     47  CB         0.0940   48.4270   21.2870 C.3    42  ILE42       0.0252
     48  CG1        1.0700   48.7270   20.1370 C.3    42  ILE42       0.0019
     49  CG2       -0.5200   47.0590   21.0950 C.3    42  ILE42       0.0019
     50  CD1        2.3140   47.8350   20.1040 C.3    42  ILE42       0.0001
     51  N         -5.2910   42.5220   24.4700 N.3    45  LEU45      -0.1245
     52  CA        -4.8300   41.4450   25.3320 C.3    45  LEU45       0.1561
     53  C         -3.3700   41.1700   24.9930 C.2    45  LEU45       0.2260
     54  O         -2.9960   41.0260   23.8250 O.2    45  LEU45      -0.2867
     55  CB        -5.6770   40.1830   25.1500 C.3    45  LEU45       0.0270
     56  CG        -7.0780   40.2950   25.7530 C.3    45  LEU45       0.0019
     57  CD1       -8.0250   39.2550   25.1790 C.3    45  LEU45       0.0001
     58  CD2       -7.0440   40.1900   27.2620 C.3    45  LEU45       0.0001
     59  N         -0.0160   39.5130   24.1970 N.3    47  ASN47      -0.1240
     60  CA         0.2890   38.2760   23.4860 C.3    47  ASN47       0.1653
     61  C          1.7880   38.2930   23.1690 C.2    47  ASN47       0.2266
     62  O          2.2300   39.1610   22.4350 O.2    47  ASN47      -0.2867
     63  CB        -0.5490   38.2290   22.2040 C.3    47  ASN47       0.1155
     64  CG        -0.5470   36.8780   21.5250 C.2    47  ASN47       0.2627
     65  OD1        0.3180   36.0320   21.7740 O.2    47  ASN47      -0.2716
     66  ND2       -1.5200   36.6660   20.6470 N.am   47  ASN47      -0.0877
     67  N          8.1070   50.4010   18.2880 N.3   105  PHE105     -0.1227
     68  CA         8.1110   48.9660   17.9990 C.3   105  PHE105      0.1736
     69  C          8.3750   48.6650   16.5290 C.2   105  PHE105      0.2595
     70  O          8.9260   47.6140   16.2000 O.2   105  PHE105     -0.2718
     71  CB         6.7960   48.3300   18.4150 C.3   105  PHE105      0.0547
     72  CG         6.5450   48.3630   19.8960 C.ar  105  PHE105     -0.0202
     73  CD1        7.3370   47.6290   20.7690 C.ar  105  PHE105     -0.0042
     74  CD2        5.4990   49.1140   20.4150 C.ar  105  PHE105     -0.0042
     75  CE1        7.0910   47.6520   22.1380 C.ar  105  PHE105     -0.0003
     76  CE2        5.2540   49.1460   21.7780 C.ar  105  PHE105     -0.0003
     77  CZ         6.0430   48.4100   22.6360 C.ar  105  PHE105     -0.0000
     78  N          7.9680   49.5790   15.6550 N.am  106  LEU106     -0.1980
     79  CA         8.2490   49.4790   14.2260 C.3   106  LEU106      0.1596
     80  C          8.7150   50.8480   13.7350 C.2   106  LEU106      0.2287
     81  O          7.9090   51.6870   13.3290 O.2   106  LEU106     -0.2864
     82  CB         7.0000   49.0140   13.4710 C.3   106  LEU106      0.0297
     83  CG         7.2240   48.4880   12.0550 C.3   106  LEU106      0.0022
     84  CD1        8.2390   47.3430   12.0150 C.3   106  LEU106      0.0001
     85  CD2        5.9000   48.0370   11.4700 C.3   106  LEU106      0.0001
     86  N          3.5450   41.7400    9.9480 N.3   156  MET156     -0.1245
     87  CA         4.8510   41.7800   10.5990 C.3   156  MET156      0.1570
     88  C          5.1440   40.3640   11.0940 C.2   156  MET156      0.2261
     89  O          4.3920   39.8280   11.9230 O.2   156  MET156     -0.2867
     90  CB         4.7750   42.7750   11.7660 C.3   156  MET156      0.0387
     91  CG         5.9910   42.9240   12.6680 C.3   156  MET156      0.0595
     92  SD         5.5980   44.0020   14.0770 S.3   156  MET156     -0.1393
     93  CE         7.2060   44.1700   14.8420 C.3   156  MET156      0.0692
     94  N          1.7220   39.4100   13.1110 N.3   168  ARG168     -0.1245
     95  CA         0.7560   40.4770   13.3890 C.3   168  ARG168      0.1563
     96  C          0.2460   40.9980   12.0560 C.2   168  ARG168      0.2260
     97  O          1.0370   41.4360   11.2220 O.2   168  ARG168     -0.2867
     98  CB         1.4160   41.5980   14.1860 C.3   168  ARG168      0.0307
     99  CG         1.7660   41.2050   15.6270 C.3   168  ARG168      0.0489
    100  CD         2.8960   42.0340   16.2260 C.3   168  ARG168      0.2205
    101  NE         3.4280   41.4380   17.4530 N.pl3 168  ARG168     -0.0865
    102  CZ         4.3110   42.0280   18.2560 C.cat 168  ARG168      0.5346
    103  NH1        4.7630   43.2490   17.9890 N.pl3 168  ARG168      0.1354
    104  NH2        4.7330   41.4040   19.3470 N.pl3 168  ARG168      0.1354
    105  N         -2.4620   43.5470    9.8840 N.3   170  PHE170     -0.1241
    106  CA        -3.0270   44.9070    9.9640 C.3   170  PHE170      0.1605
    107  C         -4.0680   45.0520    8.8540 C.2   170  PHE170      0.2264
    108  O         -3.7460   45.4380    7.7350 O.2   170  PHE170     -0.2867
    109  CB        -1.9110   45.9330    9.8000 C.3   170  PHE170      0.0534
    110  CG        -0.7920   45.7430   10.7800 C.ar  170  PHE170     -0.0203
    111  CD1       -0.9590   46.0290   12.1240 C.ar  170  PHE170     -0.0042
    112  CD2        0.4290   45.2310   10.3620 C.ar  170  PHE170     -0.0042
    113  CE1        0.0760   45.8290   13.0360 C.ar  170  PHE170     -0.0003
    114  CE2        1.4640   45.0210   11.2710 C.ar  170  PHE170     -0.0003
    115  CZ         1.2810   45.3200   12.6070 C.ar  170  PHE170     -0.0000
@<TRIPOS>BOND
     1   108   107    2
     2   107   106    1
     3   109   106    1
     4   109   110    1
     5   105   106    1
     6    86    87    1
     7   112   110   ar
     8   112   114   ar
     9    87    88    1
    10    87    90    1
    11   110   111   ar
    12    88    89    2
    13    97    96    2
    14   114   115   ar
    15    85    83    1
    16    90    91    1
    17    84    83    1
    18    83    82    1
    19    96    95    1
    20   111   113   ar
    21   115   113   ar
    22    91    92    1
    23    94    95    1
    24    35    34    2
    25    81    80    2
    26    95    98    1
    27    82    79    1
    28    80    79    1
    29    92    93    1
    30    36    37    1
    31    36    33    1
    32    98    99    1
    33    79    78    1
    34    34    33    1
    35     2     1    1
    36     2     3    1
    37     2     5    1
    38    37    38   ar
    39    37    39   ar
    40    38    40   ar
    41     3     4    2
    42    33    32    1
    43     5     6    1
    44    31    30    1
    45    29    28    2
    46    39    41   ar
    47    40    42   ar
    48    99   100    1
    49    78    69   am
    50    41    42   ar
    51    13    14    1
    52    70    69    2
    53   100   101    1
    54    28    27    1
    55    69    68    1
    56    14    15    1
    57    14    17    1
    58     6     7   ar
    59     6     8   ar
    60    15    16    2
    61    30    27    1
    62    26    27    1
    63     7     9   ar
    64   101   102    2
    65     8    10   ar
    66    22    21    2
    67    17    18    1
    68   103   102    1
    69    68    67    1
    70    68    71    1
    71   102   104    1
    72    71    72    1
    73     9    11   ar
    74    21    20    1
    75    10    11   ar
    76    19    20    1
    77    11    12    1
    78    20    23    1
    79    72    74   ar
    80    72    73   ar
    81    50    48    1
    82    48    47    1
    83    74    76   ar
    84    24    23    1
    85    66    64   am
    86    73    75   ar
    87    23    25    1
    88    49    47    1
    89    47    44    1
    90    44    43    1
    91    44    45    1
    92    64    65    2
    93    64    63    1
    94    76    77   ar
    95    75    77   ar
    96    63    60    1
    97    62    61    2
    98    45    46    2
    99    61    60    1
   100    60    59    1
   101    54    53    2
   102    51    52    1
   103    53    52    1
   104    55    52    1
   105    55    56    1
   106    57    56    1
   107    56    58    1
