@<TRIPOS>MOLECULE
tmp/3bmzA00.pdb
 132 125 0 0 0
SMALL
GASTEIGER

@<TRIPOS>ATOM
      1  N        -17.6940   59.0940   22.8470 N.3     9  TRP9       -0.1241
      2  CA       -16.7500   58.3440   23.6480 C.3     9  TRP9        0.1605
      3  C        -16.1510   57.2330   22.8310 C.2     9  TRP9        0.2264
      4  O        -16.7620   56.7140   21.9100 O.2     9  TRP9       -0.2867
      5  CB       -17.4140   57.8060   24.9180 C.3     9  TRP9        0.0550
      6  CG       -18.5150   56.8030   24.7140 C.ar    9  TRP9        0.0003
      7  CD1      -19.8290   57.0560   24.4090 C.ar    9  TRP9        0.0946
      8  CD2      -18.3990   55.3820   24.8340 C.ar    9  TRP9        0.0152
      9  NE1      -20.5230   55.8770   24.3290 N.ar    9  TRP9       -0.2442
     10  CE2      -19.6710   54.8320   24.5770 C.ar    9  TRP9        0.0810
     11  CE3      -17.3320   54.5180   25.1290 C.ar    9  TRP9        0.0012
     12  CZ2      -19.9060   53.4570   24.6030 C.ar    9  TRP9        0.0191
     13  CZ3      -17.5630   53.1670   25.1530 C.ar    9  TRP9        0.0001
     14  CH2      -18.8420   52.6460   24.8980 C.ar    9  TRP9        0.0015
     15  N        -12.1290   47.7410   24.4520 N.3    13  TYR13      -0.1241
     16  CA       -13.0840   46.9130   25.1700 C.3    13  TYR13       0.1605
     17  C        -12.5080   45.5210   25.3630 C.2    13  TYR13       0.2264
     18  O        -11.6540   45.0750   24.6000 O.2    13  TYR13      -0.2867
     19  CB       -14.4570   46.8640   24.4690 C.3    13  TYR13       0.0534
     20  CG       -14.4430   46.0540   23.2040 C.ar   13  TYR13      -0.0201
     21  CD1      -14.5670   44.6690   23.2480 C.ar   13  TYR13      -0.0009
     22  CD2      -14.2630   46.6520   21.9670 C.ar   13  TYR13      -0.0009
     23  CE1      -14.5270   43.9070   22.1040 C.ar   13  TYR13       0.0417
     24  CE2      -14.2260   45.8920   20.8080 C.ar   13  TYR13       0.0417
     25  CZ       -14.3560   44.5180   20.8840 C.ar   13  TYR13       0.1957
     26  OH       -14.3060   43.7560   19.7410 O.3    13  TYR13      -0.2866
     27  N        -14.2200   41.6980   26.0930 N.3    15  SER15      -0.1217
     28  CA       -15.5130   41.0340   25.9490 C.3    15  SER15       0.1889
     29  C        -15.4120   39.5890   26.4000 C.2    15  SER15       0.2288
     30  O        -14.4980   38.8650   25.9960 O.2    15  SER15      -0.2866
     31  CB       -15.9300   41.0980   24.4840 C.3    15  SER15       0.2089
     32  OG       -17.2250   40.5730   24.2730 O.3    15  SER15      -0.2183
     33  N        -13.5680   50.4890   20.2630 N.3    31  CYS31      -0.1235
     34  CA       -14.8450   50.9960   19.7920 C.3    31  CYS31       0.1677
     35  C        -14.9280   52.5080   19.8990 C.2    31  CYS31       0.2270
     36  O        -14.2380   53.1300   20.7020 O.2    31  CYS31      -0.2867
     37  CB       -16.0050   50.3310   20.5300 C.3    31  CYS31       0.0956
     38  SG       -16.1410   50.6970   22.2710 S.3    31  CYS31      -0.0801
     39  N        -18.0300   55.7480   19.6120 N.3    33  PHE33      -0.1241
     40  CA       -19.4340   56.1640   19.5490 C.3    33  PHE33       0.1605
     41  C        -19.4970   57.6710   19.4400 C.2    33  PHE33       0.2264
     42  O        -18.9820   58.3760   20.3040 O.2    33  PHE33      -0.2867
     43  CB       -20.1840   55.7000   20.8040 C.3    33  PHE33       0.0534
     44  CG       -20.4730   54.2310   20.8170 C.ar   33  PHE33      -0.0203
     45  CD1      -19.5160   53.3260   21.2440 C.ar   33  PHE33      -0.0042
     46  CD2      -21.6910   53.7490   20.3560 C.ar   33  PHE33      -0.0042
     47  CE1      -19.7710   51.9700   21.2230 C.ar   33  PHE33      -0.0003
     48  CE2      -21.9410   52.3930   20.3370 C.ar   33  PHE33      -0.0003
     49  CZ       -20.9760   51.5030   20.7700 C.ar   33  PHE33      -0.0000
     50  N        -16.8890   49.3810   15.7360 N.3    42  ILE42      -0.1245
     51  CA       -16.3210   48.3590   16.6160 C.3    42  ILE42       0.1561
     52  C        -15.3580   47.5040   15.8010 C.2    42  ILE42       0.2260
     53  O        -15.7460   46.9500   14.7690 O.2    42  ILE42      -0.2867
     54  CB       -17.4260   47.4450   17.1920 C.3    42  ILE42       0.0252
     55  CG1      -18.4360   48.2620   18.0060 C.3    42  ILE42       0.0019
     56  CG2      -16.8170   46.3730   18.0690 C.3    42  ILE42       0.0019
     57  CD1      -19.6240   47.4600   18.4870 C.3    42  ILE42       0.0001
     58  N        -17.2620   38.1670   18.9020 N.3    47  ASN47      -0.1240
     59  CA       -17.5350   37.4190   20.1210 C.3    47  ASN47       0.1653
     60  C        -19.0270   37.5960   20.4260 C.2    47  ASN47       0.2266
     61  O        -19.4570   38.7100   20.6880 O.2    47  ASN47      -0.2867
     62  CB       -16.6750   37.9760   21.2620 C.3    47  ASN47       0.1155
     63  CG       -16.6710   37.0970   22.4920 C.2    47  ASN47       0.2627
     64  OD1      -17.5400   36.2430   22.6640 O.2    47  ASN47      -0.2716
     65  ND2      -15.6940   37.3050   23.3630 N.am   47  ASN47      -0.0877
     66  N        -25.4820   50.4780   18.7710 N.3   105  PHE105     -0.1227
     67  CA       -25.4480   49.3590   19.7170 C.3   105  PHE105      0.1736
     68  C        -25.7300   49.7940   21.1490 C.2   105  PHE105      0.2595
     69  O        -26.2890   49.0280   21.9350 O.2   105  PHE105     -0.2718
     70  CB       -24.1050   48.6390   19.6500 C.3   105  PHE105      0.0547
     71  CG       -23.8620   47.9470   18.3400 C.ar  105  PHE105     -0.0202
     72  CD1      -24.6440   46.8670   17.9530 C.ar  105  PHE105     -0.0042
     73  CD2      -22.8520   48.3770   17.4910 C.ar  105  PHE105     -0.0042
     74  CE1      -24.4180   46.2240   16.7420 C.ar  105  PHE105     -0.0003
     75  CE2      -22.6240   47.7360   16.2820 C.ar  105  PHE105     -0.0003
     76  CZ       -23.4040   46.6640   15.9110 C.ar  105  PHE105     -0.0000
     77  N        -25.3290   51.0210   21.4740 N.am  106  LEU106     -0.1980
     78  CA       -25.6010   51.6280   22.7670 C.3   106  LEU106      0.1596
     79  C        -26.0470   53.0780   22.5450 C.2   106  LEU106      0.2287
     80  O        -25.2250   53.9910   22.4930 O.2   106  LEU106     -0.2864
     81  CB       -24.3630   51.5640   23.6620 C.3   106  LEU106      0.0297
     82  CG       -24.6000   51.7850   25.1540 C.3   106  LEU106      0.0022
     83  CD1      -25.6370   50.8130   25.7030 C.3   106  LEU106      0.0001
     84  CD2      -23.2910   51.6600   25.9230 C.3   106  LEU106      0.0001
     85  N        -34.5420   45.1490   27.8360 N.3   136  ARG136     -0.1245
     86  CA       -34.5660   45.2990   26.3880 C.3   136  ARG136      0.1563
     87  C        -35.8510   44.5750   25.9620 C.2   136  ARG136      0.2260
     88  O        -35.9060   43.3510   26.0550 O.2   136  ARG136     -0.2867
     89  CB       -33.3320   44.6490   25.7490 C.3   136  ARG136      0.0307
     90  CG       -32.0200   45.3580   26.0740 C.3   136  ARG136      0.0489
     91  CD       -30.8000   44.5220   25.6760 C.3   136  ARG136      0.2205
     92  NE       -30.6770   43.3480   26.5390 N.pl3 136  ARG136     -0.0865
     93  CZ       -30.6030   42.0820   26.1360 C.cat 136  ARG136      0.5346
     94  NH1      -30.5960   41.7510   24.8450 N.pl3 136  ARG136      0.1354
     95  NH2      -30.5220   41.1220   27.0430 N.pl3 136  ARG136      0.1354
     96  N        -20.8280   46.9030   30.3150 N.3   156  MET156     -0.1245
     97  CA       -22.1570   46.5490   29.8520 C.3   156  MET156      0.1570
     98  C        -22.3800   45.0710   30.0760 C.2   156  MET156      0.2261
     99  O        -21.6100   44.2440   29.5790 O.2   156  MET156     -0.2867
    100  CB       -22.3270   46.8400   28.3780 C.3   156  MET156      0.0387
    101  CG       -23.7170   46.4030   27.8630 C.3   156  MET156      0.0595
    102  SD       -25.1760   47.1430   28.7000 S.3   156  MET156     -0.1393
    103  CE       -25.2530   48.6840   27.8040 C.3   156  MET156      0.0692
    104  N        -25.0780   42.2950   29.1920 N.3   158  THR158     -0.1218
    105  CA       -26.2140   42.0070   28.3290 C.3   158  THR158      0.1862
    106  C        -26.7120   40.6160   28.6910 C.2   158  THR158      0.2287
    107  O        -26.0360   39.6140   28.4520 O.2   158  THR158     -0.2866
    108  CB       -25.8280   42.0680   26.8400 C.3   158  THR158      0.1770
    109  OG1      -25.2340   43.3370   26.5350 O.3   158  THR158     -0.2211
    110  CG2      -27.0410   41.8650   25.9540 C.3   158  THR158      0.0375
    111  N        -18.9480   43.3060   28.6960 N.3   168  ARG168     -0.1245
    112  CA       -18.0030   44.1160   27.9360 C.3   168  ARG168      0.1563
    113  C        -17.5120   45.2210   28.8570 C.2   168  ARG168      0.2260
    114  O        -18.3170   45.9830   29.3940 O.2   168  ARG168     -0.2867
    115  CB       -18.6750   44.6850   26.6950 C.3   168  ARG168      0.0307
    116  CG       -19.0160   43.6240   25.6480 C.3   168  ARG168      0.0489
    117  CD       -20.0650   44.1010   24.6710 C.3   168  ARG168      0.2205
    118  NE       -20.5790   43.0150   23.8370 N.pl3 168  ARG168     -0.0865
    119  CZ       -21.4540   43.1850   22.8490 C.cat 168  ARG168      0.5346
    120  NH1      -21.9050   44.3950   22.5510 N.pl3 168  ARG168      0.1354
    121  NH2      -21.8650   42.1440   22.1420 N.pl3 168  ARG168      0.1354
    122  N        -14.8260   48.5280   29.5940 N.3   170  PHE170     -0.1241
    123  CA       -14.2880   49.6810   28.8660 C.3   170  PHE170      0.1605
    124  C        -13.2330   50.3570   29.7440 C.2   170  PHE170      0.2264
    125  O        -13.5570   51.2500   30.5190 O.2   170  PHE170     -0.2867
    126  CB       -15.4140   50.6580   28.5260 C.3   170  PHE170      0.0534
    127  CG       -16.5280   50.0180   27.7550 C.ar  170  PHE170     -0.0203
    128  CD1      -16.3540   49.6580   26.4290 C.ar  170  PHE170     -0.0042
    129  CD2      -17.7410   49.7440   28.3650 C.ar  170  PHE170     -0.0042
    130  CE1      -17.3660   49.0450   25.7180 C.ar  170  PHE170     -0.0003
    131  CE2      -18.7640   49.1370   27.6540 C.ar  170  PHE170     -0.0003
    132  CZ       -18.5780   48.7820   26.3350 C.ar  170  PHE170     -0.0000
@<TRIPOS>BOND
     1    53    52    2
     2    50    51    1
     3    52    51    1
     4    76    75   ar
     5    76    74   ar
     6    75    73   ar
     7    51    54    1
     8    74    72   ar
     9    54    55    1
    10    54    56    1
    11    73    71   ar
    12    72    71   ar
    13    55    57    1
    14    71    70    1
    15    66    67    1
    16    58    59    1
    17    41    40    1
    18    41    42    2
    19    40    39    1
    20    40    43    1
    21    70    67    1
    22    67    68    1
    23    26    25    1
    24    34    35    1
    25    34    33    1
    26    34    37    1
    27    35    36    2
    28    59    60    1
    29    59    62    1
    30    48    46   ar
    31    48    49   ar
    32    46    44   ar
    33    60    61    2
    34    37    38    1
    35    49    47   ar
    36    43    44    1
    37    24    25   ar
    38    24    22   ar
    39    44    45   ar
    40    25    23   ar
    41    68    77   am
    42    68    69    2
    43    47    45   ar
    44    62    63    1
    45    77    78    1
    46     4     3    2
    47    22    20   ar
    48    23    21   ar
    49   121   119    1
    50    63    64    2
    51    63    65   am
    52    80    79    2
    53    79    78    1
    54   120   119    1
    55    78    81    1
    56     3     2    1
    57     1     2    1
    58   119   118    2
    59    20    21   ar
    60    20    19    1
    61     2     5    1
    62    81    82    1
    63   118   117    1
    64    32    31    1
    65     9     7   ar
    66     9    10   ar
    67     7     6   ar
    68    15    16    1
    69    19    16    1
    70    31    28    1
    71    10    12   ar
    72    10     8   ar
    73    18    17    2
    74    12    14   ar
    75   117   116    1
    76     6     8   ar
    77     6     5    1
    78     8    11   ar
    79    94    93    1
    80    14    13   ar
    81    11    13   ar
    82    82    83    1
    83    82    84    1
    84    16    17    1
    85   116   115    1
    86    91    90    1
    87    91    92    1
    88   130   132   ar
    89   130   128   ar
    90    89    90    1
    91    89    86    1
    92    28    27    1
    93    28    29    1
    94   110   108    1
    95    87    88    2
    96    87    86    1
    97    30    29    2
    98    93    92    2
    99    93    95    1
   100   132   131   ar
   101    86    85    1
   102   128   127   ar
   103   109   108    1
   104   115   112    1
   105   108   105    1
   106   131   129   ar
   107   127   129   ar
   108   127   126    1
   109   103   102    1
   110   101   100    1
   111   101   102    1
   112   112   111    1
   113   112   113    1
   114   105   106    1
   115   105   104    1
   116   100    97    1
   117   107   106    2
   118   126   123    1
   119   113   114    2
   120   123   122    1
   121   123   124    1
   122    99    98    2
   123   124   125    2
   124    97    98    1
   125    97    96    1
