@<TRIPOS>MOLECULE
tmp/3bn1A00.pdb
 98 93 0 0 0
SMALL
GASTEIGER

@<TRIPOS>ATOM
      1  N         -1.0420    9.3320   44.0810 N.3    58  THR58      -0.1218
      2  CA        -1.0720    9.4200   42.6160 C.3    58  THR58       0.1862
      3  C          0.0810   10.2690   42.1240 C.2    58  THR58       0.2287
      4  O          0.7110   10.0120   41.0930 O.2    58  THR58      -0.2866
      5  CB        -2.4130   10.0930   42.2320 C.3    58  THR58       0.1770
      6  OG1       -3.4290    9.1620   42.5850 O.3    58  THR58      -0.2211
      7  CG2       -2.4900   10.3080   40.7130 C.3    58  THR58       0.0375
      8  N         -6.3600    0.2410   40.5550 N.3    83  TYR83      -0.1241
      9  CA        -6.9520    1.5540   40.6830 C.3    83  TYR83       0.1605
     10  C         -6.3340    2.3850   39.5300 C.2    83  TYR83       0.2264
     11  O         -5.1700    2.2550   39.1710 O.2    83  TYR83      -0.2867
     12  CB        -6.6100    2.1660   42.0420 C.3    83  TYR83       0.0534
     13  CG        -7.2190    3.5340   42.1020 C.ar   83  TYR83      -0.0201
     14  CD1       -8.6100    3.6950   42.0110 C.ar   83  TYR83      -0.0009
     15  CD2       -6.3880    4.6600   42.1890 C.ar   83  TYR83      -0.0009
     16  CE1       -9.1620    4.9340   42.1180 C.ar   83  TYR83       0.0417
     17  CE2       -6.9250    5.8910   42.2850 C.ar   83  TYR83       0.0417
     18  CZ        -8.2880    6.0260   42.1910 C.ar   83  TYR83       0.1957
     19  OH        -8.7980    7.2920   42.2070 O.3    83  TYR83      -0.2866
     20  N         -1.7570   -0.0970   48.7080 N.3   157  GLU157     -0.1245
     21  CA        -2.6990   -0.7570   49.6210 C.3   157  GLU157      0.1567
     22  C         -2.0190   -1.7320   50.5490 C.2   157  GLU157      0.2260
     23  O         -2.7040   -2.5320   51.1990 O.2   157  GLU157     -0.2867
     24  CB        -3.6670   -1.5440   48.7060 C.3   157  GLU157      0.0388
     25  CG        -4.1940   -0.6290   47.5850 C.3   157  GLU157      0.1160
     26  CD        -5.1640   -1.3230   46.6290 C.2   157  GLU157      0.3649
     27  OE1       -5.4070   -2.5410   46.7660 O.co2 157  GLU157     -0.2457
     28  OE2       -5.7290   -0.6340   45.7350 O.co2 157  GLU157     -0.2457
     29  N          0.1360    5.1360   49.4320 N.3   178  SER178     -0.1217
     30  CA        -0.9520    6.1040   49.5610 C.3   178  SER178      0.1889
     31  C         -1.4310    6.1980   51.0180 C.2   178  SER178      0.2288
     32  O         -1.6680    5.1800   51.6830 O.2   178  SER178     -0.2866
     33  CB        -2.1600    5.6260   48.7760 C.3   178  SER178      0.2089
     34  OG        -3.2570    6.4940   49.0610 O.3   178  SER178     -0.2183
     35  N         -4.1610    8.0010   51.5770 N.3   180  PHE180     -0.1241
     36  CA        -5.5200    8.5290   51.4090 C.3   180  PHE180      0.1605
     37  C         -6.3450    8.0800   52.6410 C.2   180  PHE180      0.2264
     38  O         -5.9640    7.1750   53.3950 O.2   180  PHE180     -0.2867
     39  CB        -6.0720    7.9390   50.1030 C.3   180  PHE180      0.0534
     40  CG        -7.4290    8.4320   49.7650 C.ar  180  PHE180     -0.0203
     41  CD1       -7.6580    9.7920   49.6430 C.ar  180  PHE180     -0.0042
     42  CD2       -8.4760    7.5460   49.6050 C.ar  180  PHE180     -0.0042
     43  CE1       -8.9140   10.2780   49.3520 C.ar  180  PHE180     -0.0003
     44  CE2       -9.7250    8.0340   49.3340 C.ar  180  PHE180     -0.0003
     45  CZ        -9.9440    9.4080   49.2000 C.ar  180  PHE180     -0.0000
     46  N         -8.9880    6.2340   53.4010 N.3   182  ASN182     -0.1240
     47  CA        -9.3490    4.8550   53.7170 C.3   182  ASN182      0.1653
     48  C         -8.1500    3.8880   53.7380 C.2   182  ASN182      0.2266
     49  O         -8.3710    2.6820   53.8300 O.2   182  ASN182     -0.2867
     50  CB       -10.4520    4.3730   52.7520 C.3   182  ASN182      0.1155
     51  CG        -9.9710    4.3010   51.3210 C.2   182  ASN182      0.2627
     52  OD1       -8.7810    4.5090   51.0620 O.2   182  ASN182     -0.2716
     53  ND2      -10.8880    4.0470   50.3720 N.am  182  ASN182     -0.0877
     54  N         -4.8160   12.9660   52.9760 N.3   188  GLU188     -0.1245
     55  CA        -4.3200   12.8630   51.5950 C.3   188  GLU188      0.1567
     56  C         -2.8080   12.8400   51.8320 C.2   188  GLU188      0.2260
     57  O         -2.2950   13.6560   52.5960 O.2   188  GLU188     -0.2867
     58  CB        -4.7160   14.0720   50.7070 C.3   188  GLU188      0.0388
     59  CG        -6.1510   14.1230   50.1450 C.3   188  GLU188      0.1160
     60  CD        -6.4640   13.1810   48.9460 C.2   188  GLU188      0.3649
     61  OE1       -5.5960   12.4640   48.3930 O.co2 188  GLU188     -0.2457
     62  OE2       -7.6570   13.1460   48.5480 O.co2 188  GLU188     -0.2457
     63  N         -5.8380   -4.7640   53.3360 N.3   282  TRP282     -0.1241
     64  CA        -6.4250   -3.4440   53.2180 C.3   282  TRP282      0.1605
     65  C         -7.9610   -3.6400   53.1040 C.2   282  TRP282      0.2264
     66  O         -8.7820   -2.9050   53.6870 O.2   282  TRP282     -0.2867
     67  CB        -5.8820   -2.7420   51.9650 C.3   282  TRP282      0.0550
     68  CG        -6.6310   -1.4000   51.7940 C.ar  282  TRP282      0.0003
     69  CD1       -6.8830   -0.4500   52.7580 C.ar  282  TRP282      0.0946
     70  CD2       -7.2010   -0.9050   50.5800 C.ar  282  TRP282      0.0152
     71  NE1       -7.6300    0.5980   52.2040 N.ar  282  TRP282     -0.2442
     72  CE2       -7.7990    0.3440   50.8620 C.ar  282  TRP282      0.0810
     73  CE3       -7.3680   -1.4560   49.3060 C.ar  282  TRP282      0.0012
     74  CZ2       -8.5220    1.0590   49.9010 C.ar  282  TRP282      0.0191
     75  CZ3       -8.0140   -0.6800   48.3220 C.ar  282  TRP282      0.0001
     76  CH2       -8.5340    0.5710   48.6180 C.ar  282  TRP282      0.0015
     77  N        -17.8730   -2.6600   48.2050 N.3   311  ARG311     -0.1245
     78  CA       -17.6600   -1.9880   46.9150 C.3   311  ARG311      0.1563
     79  C        -17.1470   -3.0450   45.9740 C.2   311  ARG311      0.2260
     80  O        -16.6440   -4.1050   46.3720 O.2   311  ARG311     -0.2867
     81  CB       -16.6520   -0.8480   46.9820 C.3   311  ARG311      0.0307
     82  CG       -15.3720   -1.4350   47.3610 C.3   311  ARG311      0.0489
     83  CD       -14.2390   -0.4780   47.7470 C.3   311  ARG311      0.2205
     84  NE       -13.5890    0.1100   46.5840 N.pl3 311  ARG311     -0.0865
     85  CZ       -12.7530    1.1470   46.6370 C.cat 311  ARG311      0.5346
     86  NH1      -12.2400    1.5910   45.4900 N.pl3 311  ARG311      0.1354
     87  NH2      -12.4390    1.7350   47.8110 N.pl3 311  ARG311      0.1354
     88  N        -12.1230   -3.2840   41.6430 N.3   314  PHE314     -0.1241
     89  CA       -11.8860   -2.2910   40.5970 C.3   314  PHE314      0.1605
     90  C        -12.2640   -2.7670   39.2410 C.2   314  PHE314      0.2264
     91  O        -12.0390   -3.9450   38.9230 O.2   314  PHE314     -0.2867
     92  CB       -10.3860   -2.0880   40.5060 C.3   314  PHE314      0.0534
     93  CG        -9.7820   -1.5800   41.7710 C.ar  314  PHE314     -0.0203
     94  CD1      -10.0890   -0.3050   42.2000 C.ar  314  PHE314     -0.0042
     95  CD2       -8.8290   -2.3320   42.4740 C.ar  314  PHE314     -0.0042
     96  CE1       -9.5560    0.2170   43.3500 C.ar  314  PHE314     -0.0003
     97  CE2       -8.1980   -1.7960   43.6550 C.ar  314  PHE314     -0.0003
     98  CZ        -8.5870   -0.5460   44.0870 C.ar  314  PHE314     -0.0000
@<TRIPOS>BOND
     1    91    90    2
     2    11    10    2
     3    90    89    1
     4    10     9    1
     5    92    89    1
     6    92    93    1
     7     8     9    1
     8    89    88    1
     9     9    12    1
    10     7     5    1
    11     4     3    2
    12    93    94   ar
    13    93    95   ar
    14    14    13   ar
    15    14    16   ar
    16    12    13    1
    17    13    15   ar
    18    16    18   ar
    19     3     2    1
    20    15    17   ar
    21    18    19    1
    22    18    17   ar
    23    94    96   ar
    24     5     6    1
    25     5     2    1
    26    95    97   ar
    27     2     1    1
    28    96    98   ar
    29    97    98   ar
    30    86    85    1
    31    28    26   ar
    32    79    80    2
    33    79    78    1
    34    84    85    2
    35    84    83    1
    36    26    27   ar
    37    26    25    1
    38    85    87    1
    39    78    81    1
    40    78    77    1
    41    81    82    1
    42    82    83    1
    43    25    24    1
    44    75    76   ar
    45    75    73   ar
    46    61    60   ar
    47    62    60   ar
    48    76    74   ar
    49    24    21    1
    50    20    21    1
    51    33    34    1
    52    33    30    1
    53    60    59    1
    54    45    44   ar
    55    45    43   ar
    56    73    70   ar
    57    44    42   ar
    58    43    41   ar
    59    29    30    1
    60    30    31    1
    61    42    40   ar
    62    21    22    1
    63    41    40   ar
    64    40    39    1
    65    74    72   ar
    66    39    36    1
    67    59    58    1
    68    53    51   am
    69    22    23    2
    70    70    72   ar
    71    70    68   ar
    72    58    55    1
    73    72    71   ar
    74    31    32    2
    75    52    51    2
    76    51    50    1
    77    36    35    1
    78    36    37    1
    79    55    56    1
    80    55    54    1
    81    68    67    1
    82    68    69   ar
    83    56    57    2
    84    67    64    1
    85    71    69   ar
    86    37    38    2
    87    50    47    1
    88    65    64    1
    89    65    66    2
    90    64    63    1
    91    46    47    1
    92    47    48    1
    93    48    49    2
