@<TRIPOS>MOLECULE
tmp/3bnfA04.pdb
 166 158 0 0 0
SMALL
GASTEIGER

@<TRIPOS>ATOM
      1  N          5.5770   63.6000   27.2420 N.3   251  ILE251     -0.1231
      2  CA         4.9610   63.9640   28.5330 C.3   251  ILE251      0.1692
      3  C          5.9370   63.8580   29.7000 C.2   251  ILE251      0.2592
      4  O          5.9700   64.7510   30.5420 O.2   251  ILE251     -0.2718
      5  CB         3.6160   63.1980   28.8430 C.3   251  ILE251      0.0266
      6  CG1        2.9810   63.7110   30.1400 C.3   251  ILE251      0.0019
      7  CG2        3.8060   61.6980   28.8470 C.3   251  ILE251      0.0020
      8  CD1        1.4450   63.8620   30.0970 C.3   251  ILE251      0.0001
      9  N          6.7510   62.8060   29.7190 N.am  252  HIS252     -0.1976
     10  CA         7.7420   62.6510   30.8010 C.3   252  HIS252      0.1656
     11  C          8.7560   63.7870   30.8240 C.2   252  HIS252      0.2291
     12  O          9.0140   64.3430   31.8870 O.2   252  HIS252     -0.2864
     13  CB         8.4220   61.2640   30.7920 C.3   252  HIS252      0.0771
     14  CG         7.5170   60.1280   31.1810 C.ar  252  HIS252      0.0820
     15  ND1        6.9450   59.2820   30.2560 N.ar  252  HIS252     -0.2267
     16  CD2        7.0620   59.7140   32.3980 C.ar  252  HIS252      0.1154
     17  CE1        6.2220   58.3620   30.8860 C.ar  252  HIS252      0.1986
     18  NE2        6.2540   58.6150   32.1880 N.ar  252  HIS252     -0.2212
     19  N          7.0260   66.8600   32.0260 N.3   255  LYS255     -0.1245
     20  CA         6.7940   66.7400   33.4720 C.3   255  LYS255      0.1561
     21  C          8.0900   66.8480   34.2860 C.2   255  LYS255      0.2260
     22  O          8.0490   66.9140   35.5230 O.2   255  LYS255     -0.2867
     23  CB         6.1180   65.3830   33.7640 C.3   255  LYS255      0.0271
     24  CG         4.6830   65.2110   33.1960 C.3   255  LYS255      0.0035
     25  CD         3.7110   66.2720   33.7110 C.3   255  LYS255      0.0206
     26  CE         2.2220   65.9310   33.3590 C.3   255  LYS255      0.1093
     27  NZ         1.4350   65.2450   34.4710 N.3   255  LYS255     -0.1314
     28  N         10.5840   64.5740   34.2810 N.3   257  VAL257     -0.1245
     29  CA        11.1790   63.2820   34.5830 C.3   257  VAL257      0.1561
     30  C         12.4730   63.0400   33.7920 C.2   257  VAL257      0.2260
     31  O         12.4290   62.9700   32.5700 O.2   257  VAL257     -0.2867
     32  CB        10.1980   62.1630   34.2490 C.3   257  VAL257      0.0252
     33  CG1       10.7700   60.8520   34.6060 C.3   257  VAL257      0.0019
     34  CG2        8.8400   62.4220   34.9230 C.3   257  VAL257      0.0019
     35  N         15.9640   58.9540   35.8420 N.3   261  ASP261     -0.1225
     36  CA        14.8600   58.3990   36.6280 C.3   261  ASP261      0.1805
     37  C         14.3710   57.0140   36.1760 C.2   261  ASP261      0.2598
     38  O         14.0840   56.1510   37.0020 O.2   261  ASP261     -0.2718
     39  CB        13.6810   59.4110   36.6770 C.3   261  ASP261      0.1424
     40  CG        13.9440   60.5990   37.5690 C.2   261  ASP261      0.3668
     41  OD1       14.5140   60.4220   38.6880 O.co2 261  ASP261     -0.2456
     42  OD2       13.5720   61.7310   37.1790 O.co2 261  ASP261     -0.2456
     43  N         14.2140   56.7930   34.8750 N.am  262  CYS262     -0.1970
     44  CA        13.8590   55.4760   34.3770 C.3   262  CYS262      0.1712
     45  C         15.0610   54.5530   34.1030 C.2   262  CYS262      0.2296
     46  O         14.9510   53.3360   34.3000 O.2   262  CYS262     -0.2864
     47  CB        13.0290   55.6090   33.1160 C.3   262  CYS262      0.0983
     48  SG        11.6610   56.7780   33.4160 S.3   262  CYS262     -0.0798
     49  N         14.4470   49.8940   30.6460 N.3   282  PRO282     -0.2102
     50  CA        13.7270   50.0270   31.9690 C.3   282  PRO282      0.1504
     51  C         12.5750   49.0440   32.2880 C.2   282  PRO282      0.2575
     52  O         12.2240   48.8850   33.4630 O.2   282  PRO282     -0.2718
     53  CB        13.2300   51.4690   31.9780 C.3   282  PRO282      0.0282
     54  CG        14.1190   52.2030   30.9440 C.3   282  PRO282      0.0208
     55  CD        14.4060   51.1650   29.8860 C.3   282  PRO282      0.0893
     56  N         12.0510   48.3630   31.2600 N.am  283  LEU283     -0.1980
     57  CA        10.9570   47.4020   31.4140 C.3   283  LEU283      0.1596
     58  C         11.4330   46.0990   32.0520 C.2   283  LEU283      0.2287
     59  O         10.6310   45.3290   32.5640 O.2   283  LEU283     -0.2864
     60  CB        10.2950   47.1120   30.0490 C.3   283  LEU283      0.0297
     61  CG         9.6850   48.3490   29.4010 C.3   283  LEU283      0.0022
     62  CD1        9.0190   47.9890   28.1170 C.3   283  LEU283      0.0001
     63  CD2        8.7010   48.9930   30.3760 C.3   283  LEU283      0.0001
     64  N         10.9210   47.1640   36.2950 N.3   286  MET286     -0.1245
     65  CA         9.7890   48.0970   36.4040 C.3   286  MET286      0.1570
     66  C          9.4660   48.5440   37.8000 C.2   286  MET286      0.2261
     67  O          9.0920   49.7070   37.9900 O.2   286  MET286     -0.2867
     68  CB         8.5410   47.5710   35.6920 C.3   286  MET286      0.0387
     69  CG         8.6000   47.9290   34.2350 C.3   286  MET286      0.0595
     70  SD         7.1520   47.4530   33.3220 S.3   286  MET286     -0.1393
     71  CE         5.9200   48.5480   33.9840 C.3   286  MET286      0.0692
     72  N         12.0850   51.1740   38.1020 N.3   289  SER289     -0.1202
     73  CA        12.0770   52.1790   37.0140 C.3   289  SER289      0.2020
     74  C         10.7390   52.9040   36.8320 C.2   289  SER289      0.2619
     75  O         10.7370   54.0550   36.3990 O.2   289  SER289     -0.2717
     76  CB        12.4960   51.5600   35.6800 C.3   289  SER289      0.2103
     77  OG        13.8300   51.0320   35.7240 O.3   289  SER289     -0.2182
     78  N          9.6230   52.2320   37.1420 N.am  290  CYS290     -0.1969
     79  CA         8.3010   52.7960   36.9000 C.3   290  CYS290      0.1712
     80  C          7.4710   52.9950   38.1570 C.2   290  CYS290      0.2296
     81  O          6.8320   54.0230   38.3210 O.2   290  CYS290     -0.2864
     82  CB         7.5100   51.9250   35.9230 C.3   290  CYS290      0.0983
     83  SG         8.4310   51.6170   34.4310 S.3   290  CYS290     -0.0798
     84  N          7.4730   53.8830   41.2420 N.3   292  ASN292     -0.1225
     85  CA         7.4990   55.0050   42.2090 C.3   292  ASN292      0.1785
     86  C          6.4420   56.0560   41.9370 C.2   292  ASN292      0.2597
     87  O          6.0620   56.8350   42.8430 O.2   292  ASN292     -0.2718
     88  CB         8.7920   55.7950   42.0690 C.3   292  ASN292      0.1169
     89  CG         9.8950   55.2900   42.9200 C.2   292  ASN292      0.2627
     90  OD1       10.8630   56.0190   43.1430 O.2   292  ASN292     -0.2716
     91  ND2        9.8030   54.0370   43.3770 N.am  292  ASN292     -0.0877
     92  N          6.0470   56.1260   40.6630 N.am  293  CYS293     -0.1956
     93  CA         5.1770   57.1680   40.1310 C.3   293  CYS293      0.1843
     94  C          3.9330   56.5740   39.4910 C.2   293  CYS293      0.2625
     95  O          3.0170   57.3090   39.1100 O.2   293  CYS293     -0.2714
     96  CB         5.9050   57.9660   39.0470 C.3   293  CYS293      0.0997
     97  SG         7.5690   58.5950   39.4710 S.3   293  CYS293     -0.0797
     98  N          3.9180   55.2580   39.3210 N.am  294  HIS294     -0.1973
     99  CA         2.7600   54.5910   38.7500 C.3   294  HIS294      0.1656
    100  C          2.2070   53.6100   39.7540 C.2   294  HIS294      0.2291
    101  O          2.9480   52.7970   40.2950 O.2   294  HIS294     -0.2864
    102  CB         3.1040   53.8760   37.4180 C.3   294  HIS294      0.0771
    103  CG         3.4290   54.8170   36.3000 C.ar  294  HIS294      0.0820
    104  ND1        2.4590   55.4850   35.5870 N.ar  294  HIS294     -0.2267
    105  CD2        4.6180   55.2240   35.7880 C.ar  294  HIS294      0.1154
    106  CE1        3.0320   56.2560   34.6780 C.ar  294  HIS294      0.1986
    107  NE2        4.3430   56.1210   34.7810 N.ar  294  HIS294     -0.2212
    108  N          0.9570   48.1260   32.3290 N.3   301  LEU301     -0.1245
    109  CA         1.9230   49.1150   31.8390 C.3   301  LEU301      0.1561
    110  C          2.8850   48.6080   30.7310 C.2   301  LEU301      0.2260
    111  O          3.1650   49.3350   29.7500 O.2   301  LEU301     -0.2867
    112  CB         2.6840   49.6850   33.0300 C.3   301  LEU301      0.0270
    113  CG         3.1120   51.1490   33.0170 C.3   301  LEU301      0.0019
    114  CD1        1.9540   52.1130   32.8410 C.3   301  LEU301      0.0001
    115  CD2        3.9210   51.4870   34.2770 C.3   301  LEU301      0.0001
    116  N          0.7200   48.4820   27.5920 N.3   304  ILE304     -0.1231
    117  CA         0.4980   49.8230   27.0440 C.3   304  ILE304      0.1692
    118  C          1.7050   50.2720   26.1700 C.2   304  ILE304      0.2591
    119  O          1.5480   50.9480   25.1510 O.2   304  ILE304     -0.2718
    120  CB         0.1630   50.8480   28.1750 C.3   304  ILE304      0.0266
    121  CG1       -1.2500   50.5810   28.7330 C.3   304  ILE304      0.0019
    122  CG2        0.1860   52.2870   27.6510 C.3   304  ILE304      0.0020
    123  CD1       -1.4790   51.0110   30.2370 C.3   304  ILE304      0.0001
    124  N          2.9000   49.8530   26.5480 N.am  305  VAL305     -0.1980
    125  CA         4.1070   50.2190   25.8080 C.3   305  VAL305      0.1595
    126  C          4.2220   49.4110   24.5260 C.2   305  VAL305      0.2287
    127  O          4.6070   49.9500   23.4570 O.2   305  VAL305     -0.2864
    128  CB         5.3900   50.1590   26.6970 C.3   305  VAL305      0.0276
    129  CG1        6.6610   50.4620   25.8640 C.3   305  VAL305      0.0022
    130  CG2        5.2240   51.1450   27.9040 C.3   305  VAL305      0.0022
    131  N          2.0130   51.0420   22.0040 N.3   308  LYS308     -0.1245
    132  CA         2.7290   52.1760   21.3960 C.3   308  LYS308      0.1561
    133  C          3.7290   51.7000   20.3560 C.2   308  LYS308      0.2260
    134  O          3.8250   52.2800   19.2640 O.2   308  LYS308     -0.2867
    135  CB         3.4590   53.0140   22.4570 C.3   308  LYS308      0.0271
    136  CG         2.5350   53.5240   23.5620 C.3   308  LYS308      0.0035
    137  CD         3.3740   54.4990   24.4330 C.3   308  LYS308      0.0206
    138  CE         2.5490   55.1200   25.5650 C.3   308  LYS308      0.1093
    139  NZ         1.3190   55.8940   25.1450 N.3   308  LYS308     -0.1314
    140  N          8.1770   55.5180   22.7950 N.3   368  PHE368     -0.1241
    141  CA         7.7460   55.6110   24.2160 C.3   368  PHE368      0.1605
    142  C          7.9780   56.9870   24.8440 C.2   368  PHE368      0.2264
    143  O          7.1000   57.5070   25.5600 O.2   368  PHE368     -0.2867
    144  CB         8.4330   54.5500   25.1070 C.3   368  PHE368      0.0534
    145  CG         8.1490   54.7360   26.5910 C.ar  368  PHE368     -0.0203
    146  CD1        6.9290   54.3400   27.1370 C.ar  368  PHE368     -0.0042
    147  CD2        9.0570   55.4020   27.4140 C.ar  368  PHE368     -0.0042
    148  CE1        6.6500   54.5330   28.5010 C.ar  368  PHE368     -0.0003
    149  CE2        8.7780   55.6200   28.7720 C.ar  368  PHE368     -0.0003
    150  CZ         7.5450   55.1840   29.3030 C.ar  368  PHE368     -0.0000
    151  N          5.4700   59.4590   22.1530 N.3   371  PRO371     -0.2102
    152  CA         4.6780   58.6580   21.2270 C.3   371  PRO371      0.1504
    153  C          3.8820   59.5010   20.2640 C.2   371  PRO371      0.2575
    154  O          3.8240   59.2220   19.0960 O.2   371  PRO371     -0.2718
    155  CB         3.7050   57.9380   22.1780 C.3   371  PRO371      0.0282
    156  CG         4.4900   57.8570   23.4650 C.3   371  PRO371      0.0208
    157  CD         5.1060   59.1610   23.5660 C.3   371  PRO371      0.0893
    158  N          3.2570   60.5570   20.7680 N.am  372  GLU372     -0.1980
    159  CA         2.4420   61.3960   19.8780 C.3   372  GLU372      0.1602
    160  C          3.2580   62.1500   18.8490 C.2   372  GLU372      0.2287
    161  O          2.8360   62.2370   17.6960 O.2   372  GLU372     -0.2864
    162  CB         1.4680   62.2630   20.6980 C.3   372  GLU372      0.0415
    163  CG         0.4920   61.3810   21.3570 C.3   372  GLU372      0.1163
    164  CD        -0.2760   62.0160   22.4890 C.2   372  GLU372      0.3649
    165  OE1       -0.7540   63.1690   22.4130 O.co2 372  GLU372     -0.2457
    166  OE2       -0.4590   61.3180   23.4760 O.co2 372  GLU372     -0.2457
@<TRIPOS>BOND
     1   161   160    2
     2   160   159    1
     3   154   153    2
     4   134   133    2
     5   159   162    1
     6   159   158    1
     7   153   158   am
     8   153   152    1
     9   133   132    1
    10   162   163    1
    11   152   151    1
    12   152   155    1
    13   163   164    1
    14   132   131    1
    15   132   135    1
    16   151   157    1
    17   155   156    1
    18   165   164   ar
    19   135   136    1
    20   164   166   ar
    21   140   141    1
    22   127   126    2
    23   156   157    1
    24   136   137    1
    25   141   142    1
    26   141   144    1
    27   137   138    1
    28   126   125    1
    29   142   143    2
    30   144   145    1
    31   139   138    1
    32   119   118    2
    33   125   124    1
    34   125   128    1
    35   129   128    1
    36   118   124   am
    37   118   117    1
    38   145   146   ar
    39   145   147   ar
    40   128   130    1
    41   117   116    1
    42   117   120    1
    43   146   148   ar
    44     1     2    1
    45   147   149   ar
    46   122   120    1
    47    62    61    1
    48   120   121    1
    49   148   150   ar
    50     2     5    1
    51     2     3    1
    52   121   123    1
    53   149   150   ar
    54     5     7    1
    55     5     6    1
    56    61    60    1
    57    61    63    1
    58     3     9   am
    59     3     4    2
    60     9    10    1
    61   111   110    2
    62    55    49    1
    63    55    54    1
    64    60    57    1
    65     8     6    1
    66    15    17   ar
    67    15    14   ar
    68    49    50    1
    69   110   109    1
    70    13    10    1
    71    13    14    1
    72    10    11    1
    73    11    12    2
    74    17    18   ar
    75    54    53    1
    76    14    16   ar
    77    56    57    1
    78    56    51   am
    79    57    58    1
    80   109   108    1
    81   109   112    1
    82    50    53    1
    83    50    51    1
    84    19    20    1
    85    58    59    2
    86    18    16   ar
    87    51    52    2
    88    31    30    2
    89   114   113    1
    90   113   112    1
    91   113   115    1
    92    47    48    1
    93    47    44    1
    94    24    25    1
    95    24    23    1
    96    70    71    1
    97    70    69    1
    98    26    25    1
    99    26    27    1
   100    20    23    1
   101    20    21    1
   102    30    29    1
   103    45    46    2
   104    45    44    1
   105    69    68    1
   106    32    29    1
   107    32    33    1
   108    32    34    1
   109    28    29    1
   110    21    22    2
   111    44    43    1
   112    83    82    1
   113   106   107   ar
   114   106   104   ar
   115   107   105   ar
   116    43    37   am
   117   104   103   ar
   118    76    77    1
   119    76    73    1
   120    68    65    1
   121   105   103   ar
   122    35    36    1
   123    82    79    1
   124    37    36    1
   125    37    38    2
   126    64    65    1
   127   103   102    1
   128    75    74    2
   129    65    66    1
   130    36    39    1
   131    39    40    1
   132    74    73    1
   133    74    78   am
   134    79    78    1
   135    79    80    1
   136    73    72    1
   137    42    40   ar
   138   102    99    1
   139    40    41   ar
   140    66    67    2
   141    80    81    2
   142    99    98    1
   143    99   100    1
   144    96    97    1
   145    96    93    1
   146    95    94    2
   147    98    94   am
   148    94    93    1
   149   100   101    2
   150    93    92    1
   151    92    86   am
   152    84    85    1
   153    86    85    1
   154    86    87    2
   155    88    85    1
   156    88    89    1
   157    89    90    2
   158    89    91   am
