@<TRIPOS>MOLECULE
tmp/3bnfA02.pdb
 209 201 0 0 0
SMALL
GASTEIGER

@<TRIPOS>ATOM
      1  N         23.5920   43.3490   28.1220 N.3    34  SER34      -0.1217
      2  CA        22.8120   43.6960   26.9360 C.3    34  SER34       0.1889
      3  C         23.7340   43.5190   25.7170 C.2    34  SER34       0.2288
      4  O         24.3730   44.4830   25.2300 O.2    34  SER34      -0.2866
      5  CB        22.2760   45.1010   27.0570 C.3    34  SER34       0.2089
      6  OG        21.6530   45.3280   28.3020 O.3    34  SER34      -0.2183
      7  N         20.6810   47.9170   16.0680 N.3    62  ALA62      -0.1231
      8  CA        19.9990   48.5720   17.1830 C.3    62  ALA62       0.1679
      9  C         21.0380   48.7260   18.2630 C.2    62  ALA62       0.2434
     10  O         22.0400   48.0250   18.2270 O.2    62  ALA62      -0.2733
     11  CB        18.8430   47.6910   17.6780 C.3    62  ALA62       0.0304
     12  N         20.8140   49.6530   19.2240 N.am   63  PRO63      -0.2718
     13  CA        21.8050   49.9110   20.2890 C.3    63  PRO63       0.1535
     14  C         21.8880   48.6760   21.1300 C.2    63  PRO63       0.2598
     15  O         20.8980   47.9860   21.2380 O.2    63  PRO63      -0.2715
     16  CB        21.1690   51.0470   21.1070 C.3    63  PRO63       0.0310
     17  CG        19.9980   51.5390   20.3230 C.3    63  PRO63       0.0237
     18  CD        19.6070   50.4880   19.3510 C.3    63  PRO63       0.0939
     19  N         23.0610   48.3720   21.6950 N.am   64  ARG64      -0.1964
     20  CA        23.1390   47.4210   22.8140 C.3    64  ARG64       0.1729
     21  C         23.8400   48.0560   23.9770 C.2    64  ARG64       0.2617
     22  O         23.8340   49.2780   24.0400 O.2    64  ARG64      -0.2715
     23  CB        23.6680   46.0490   22.3890 C.3    64  ARG64       0.0348
     24  CG        25.0680   46.0730   21.8080 C.3    64  ARG64       0.0492
     25  CD        25.5250   44.7130   21.4970 C.3    64  ARG64       0.2205
     26  NE        26.8620   44.7520   20.9300 N.pl3  64  ARG64      -0.0865
     27  CZ        27.6710   43.6990   20.8840 C.cat  64  ARG64       0.5346
     28  NH1       27.2250   42.5320   21.2980 N.pl3  64  ARG64       0.1354
     29  NH2       28.8850   43.8080   20.3560 N.pl3  64  ARG64       0.1354
     30  N         24.4160   47.2710   24.9170 N.am   65  GLY65      -0.1940
     31  CA        24.9200   47.8950   26.1660 C.3    65  GLY65       0.2014
     32  C         26.1280   48.8010   25.9800 C.2    65  GLY65       0.2638
     33  O         26.9070   48.6580   25.0260 O.2    65  GLY65      -0.2714
     34  N         26.2940   49.7500   26.9120 N.am   66  HIS66      -0.1973
     35  CA        27.3750   50.7130   26.8100 C.3    66  HIS66       0.1656
     36  C         28.7280   49.9930   26.8130 C.2    66  HIS66       0.2291
     37  O         29.7080   50.5270   26.2880 O.2    66  HIS66      -0.2864
     38  CB        27.3260   51.6960   27.9970 C.3    66  HIS66       0.0771
     39  CG        26.3100   52.7970   27.8420 C.ar   66  HIS66       0.0820
     40  ND1       25.9830   53.6560   28.8800 N.ar   66  HIS66      -0.2267
     41  CD2       25.5810   53.2020   26.7680 C.ar   66  HIS66       0.1154
     42  CE1       25.0900   54.5330   28.4480 C.ar   66  HIS66       0.1986
     43  NE2       24.8420   54.2930   27.1710 N.ar   66  HIS66      -0.2212
     44  N         29.5420   47.7440   25.0540 N.3    68  TYR68      -0.1227
     45  CA        29.9360   47.4810   23.6490 C.3    68  TYR68       0.1736
     46  C         30.1800   48.6850   22.7470 C.2    68  TYR68       0.2595
     47  O         30.5880   48.4990   21.6000 O.2    68  TYR68      -0.2718
     48  CB        28.9230   46.5130   22.9760 C.3    68  TYR68       0.0548
     49  CG        28.7920   45.2320   23.7750 C.ar   68  TYR68      -0.0200
     50  CD1       29.7620   44.2150   23.6900 C.ar   68  TYR68      -0.0009
     51  CD2       27.7450   45.0650   24.6780 C.ar   68  TYR68      -0.0009
     52  CE1       29.6560   43.0510   24.4790 C.ar   68  TYR68       0.0417
     53  CE2       27.6300   43.9090   25.4720 C.ar   68  TYR68       0.0417
     54  CZ        28.5990   42.9160   25.3850 C.ar   68  TYR68       0.1957
     55  OH        28.4170   41.7660   26.1980 O.3    68  TYR68      -0.2866
     56  N         29.8920   49.8920   23.2100 N.am   69  ALA69      -0.1980
     57  CA        29.9290   51.0610   22.3060 C.3    69  ALA69       0.1597
     58  C         31.2690   51.2010   21.5210 C.2    69  ALA69       0.2287
     59  O         31.2690   51.3700   20.3030 O.2    69  ALA69      -0.2864
     60  CB        29.5810   52.3740   23.0710 C.3    69  ALA69       0.0319
     61  N         31.6540   48.2690   18.9860 N.3    72  ASP72      -0.1239
     62  CA        30.7000   48.4090   17.9040 C.3    72  ASP72       0.1674
     63  C         31.0810   49.4430   16.8640 C.2    72  ASP72       0.2266
     64  O         30.9270   49.1860   15.6670 O.2    72  ASP72      -0.2867
     65  CB        29.2910   48.6530   18.4950 C.3    72  ASP72       0.1410
     66  CG        28.7240   47.4050   19.1890 C.2    72  ASP72       0.3668
     67  OD1       29.2480   46.2670   18.9470 O.co2  72  ASP72      -0.2456
     68  OD2       27.7460   47.5200   19.9530 O.co2  72  ASP72      -0.2456
     69  N         33.6510   60.1210   19.1700 N.3    96  THR96      -0.1203
     70  CA        33.3280   61.1770   20.1410 C.3    96  THR96       0.1994
     71  C         32.4020   60.6770   21.2120 C.2    96  THR96       0.2618
     72  O         32.5520   61.0680   22.4000 O.2    96  THR96      -0.2717
     73  CB        32.6930   62.4280   19.4100 C.3    96  THR96       0.1784
     74  OG1       33.5560   62.7770   18.3110 O.3    96  THR96      -0.2211
     75  CG2       32.5770   63.6840   20.3660 C.3    96  THR96       0.0376
     76  N         31.4370   59.8450   20.7910 N.am   97  CYS97      -0.1955
     77  CA        30.4150   59.4290   21.7220 C.3    97  CYS97       0.1843
     78  C         30.5630   57.9980   22.1370 C.2    97  CYS97       0.2625
     79  O         29.6040   57.4050   22.4990 O.2    97  CYS97      -0.2714
     80  CB        29.0410   59.7080   21.1280 C.3    97  CYS97       0.0997
     81  SG        28.8380   61.4770   20.7520 S.3    97  CYS97      -0.0797
     82  N         31.7890   57.4550   22.0860 N.am   98  LYS98      -0.1977
     83  CA        31.9710   56.0420   22.3240 C.3    98  LYS98       0.1596
     84  C         32.9220   55.7600   23.4840 C.2    98  LYS98       0.2287
     85  O         33.0000   54.6190   23.9460 O.2    98  LYS98      -0.2864
     86  CB        32.4700   55.3730   21.0420 C.3    98  LYS98       0.0298
     87  CG        31.5510   55.6210   19.7880 C.3    98  LYS98       0.0038
     88  CD        30.3450   54.6860   19.7310 C.3    98  LYS98       0.0206
     89  CE        29.4840   55.0270   18.4390 C.3    98  LYS98       0.1093
     90  NZ        28.7660   56.3540   18.4260 N.3    98  LYS98      -0.1314
     91  N         32.4800   53.8870   26.9450 N.3   130  ILE130     -0.1245
     92  CA        31.5900   54.7190   27.8000 C.3   130  ILE130      0.1561
     93  C         31.9510   54.5440   29.2590 C.2   130  ILE130      0.2260
     94  O         31.6680   53.5040   29.8520 O.2   130  ILE130     -0.2867
     95  CB        30.0790   54.2980   27.7050 C.3   130  ILE130      0.0252
     96  CG1       29.6060   54.0210   26.2580 C.3   130  ILE130      0.0019
     97  CG2       29.1270   55.2740   28.4440 C.3   130  ILE130      0.0019
     98  CD1       29.8090   55.1590   25.2930 C.3   130  ILE130      0.0001
     99  N         33.2130   59.9530   31.1950 N.3   134  ASN134     -0.1225
    100  CA        32.3130   60.6630   30.2820 C.3   134  ASN134      0.1785
    101  C         31.2430   61.5090   31.0440 C.2   134  ASN134      0.2597
    102  O         30.6390   62.4050   30.4430 O.2   134  ASN134     -0.2718
    103  CB        31.6300   59.6970   29.3190 C.3   134  ASN134      0.1169
    104  CG        32.5980   59.1220   28.2870 C.2   134  ASN134      0.2627
    105  OD1       32.9590   57.9500   28.3620 O.2   134  ASN134     -0.2716
    106  ND2       33.0340   59.9800   27.3150 N.am  134  ASN134     -0.0877
    107  N         30.9810   61.2170   32.3190 N.am  135  CYS135     -0.1970
    108  CA        29.8460   61.8630   32.9790 C.3   135  CYS135      0.1712
    109  C         30.2080   62.5680   34.2750 C.2   135  CYS135      0.2296
    110  O         29.4850   63.4250   34.7230 O.2   135  CYS135     -0.2864
    111  CB        28.7290   60.8760   33.2690 C.3   135  CYS135      0.0983
    112  SG        28.0880   60.0870   31.7430 S.3   135  CYS135     -0.0798
    113  N         20.7140   65.4250   35.1480 N.3   171  ARG171     -0.1245
    114  CA        20.5410   63.9770   35.1170 C.3   171  ARG171      0.1563
    115  C         19.9890   63.4780   33.7630 C.2   171  ARG171      0.2260
    116  O         19.9060   62.2830   33.5570 O.2   171  ARG171     -0.2867
    117  CB        19.6430   63.5030   36.2410 C.3   171  ARG171      0.0307
    118  CG        20.2870   63.6530   37.6310 C.3   171  ARG171      0.0489
    119  CD        19.2260   63.6800   38.7120 C.3   171  ARG171      0.2205
    120  NE        18.2290   62.6220   38.5490 N.pl3 171  ARG171     -0.0865
    121  CZ        18.4000   61.3500   38.8760 C.cat 171  ARG171      0.5346
    122  NH1       19.5470   60.9350   39.3570 N.pl3 171  ARG171      0.1354
    123  NH2       17.4210   60.4730   38.7050 N.pl3 171  ARG171      0.1354
    124  N         23.5650   64.7970   30.9080 N.3   174  VAL174     -0.1231
    125  CA        24.7540   63.8900   30.8010 C.3   174  VAL174      0.1692
    126  C         24.6190   62.8790   29.6640 C.2   174  VAL174      0.2592
    127  O         25.5650   62.6010   28.9290 O.2   174  VAL174     -0.2718
    128  CB        25.0870   63.2440   32.1190 C.3   174  VAL174      0.0266
    129  CG1       25.5570   64.4280   33.0470 C.3   174  VAL174      0.0020
    130  CG2       23.8790   62.4770   32.7050 C.3   174  VAL174      0.0020
    131  N         23.3860   62.4360   29.4690 N.am  175  CYS175     -0.1970
    132  CA        23.0350   61.5520   28.3860 C.3   175  CYS175      0.1712
    133  C         23.1020   62.2200   27.0150 C.2   175  CYS175      0.2296
    134  O         23.4150   61.5460   25.9890 O.2   175  CYS175     -0.2864
    135  CB        21.6230   61.0530   28.6030 C.3   175  CYS175      0.0983
    136  SG        21.2950   60.3350   30.2570 S.3   175  CYS175     -0.0798
    137  N         24.9270   64.5710   25.9700 N.3   177  GLN177     -0.1231
    138  CA        26.2770   64.6390   25.3390 C.3   177  GLN177      0.1698
    139  C         26.3540   63.7410   24.1030 C.2   177  GLN177      0.2592
    140  O         27.0780   64.0610   23.1470 O.2   177  GLN177     -0.2718
    141  CB        27.3520   64.1070   26.2750 C.3   177  GLN177      0.0381
    142  CG        27.6330   64.9520   27.4690 C.3   177  GLN177      0.0905
    143  CD        28.7340   64.3280   28.3520 C.2   177  GLN177      0.2608
    144  OE1       29.9090   64.7030   28.2630 O.2   177  GLN177     -0.2717
    145  NE2       28.3370   63.3630   29.1860 N.am  177  GLN177     -0.0878
    146  N         25.6140   62.6380   24.1160 N.am  178  CYS178     -0.1956
    147  CA        25.6770   61.6340   23.0110 C.3   178  CYS178      0.1843
    148  C         24.3650   61.3220   22.3110 C.2   178  CYS178      0.2625
    149  O         24.3500   61.1110   21.0940 O.2   178  CYS178     -0.2714
    150  CB        26.2550   60.3490   23.5000 C.3   178  CYS178      0.0997
    151  SG        27.8270   60.7100   24.3590 S.3   178  CYS178     -0.0797
    152  N         23.2980   61.2880   23.0900 N.am  179  HIS179     -0.1973
    153  CA        21.9750   60.8390   22.6630 C.3   179  HIS179      0.1656
    154  C         21.1680   61.9710   21.9890 C.2   179  HIS179      0.2291
    155  O         20.0850   62.2820   22.4060 O.2   179  HIS179     -0.2864
    156  CB        21.2520   60.1200   23.8200 C.3   179  HIS179      0.0771
    157  CG        21.7710   58.7270   24.0910 C.ar  179  HIS179      0.0820
    158  ND1       21.3190   57.6050   23.4080 N.ar  179  HIS179     -0.2267
    159  CD2       22.6900   58.2700   24.9780 C.ar  179  HIS179      0.1154
    160  CE1       21.9240   56.5160   23.8870 C.ar  179  HIS179      0.1986
    161  NE2       22.7990   56.8950   24.8070 N.ar  179  HIS179     -0.2212
    162  N         16.0420   61.2620   32.1850 N.3   259  CYS259     -0.1221
    163  CA        16.5110   60.0020   31.6280 C.3   259  CYS259      0.1808
    164  C         16.9370   59.1190   32.7440 C.2   259  CYS259      0.2601
    165  O         16.6370   57.9510   32.7380 O.2   259  CYS259     -0.2717
    166  CB        17.7930   60.2310   30.7890 C.3   259  CYS259      0.0970
    167  SG        17.7990   61.5470   29.5370 S.3   259  CYS259     -0.0800
    168  N         17.6770   59.6820   33.6810 N.am  260  ALA260     -0.1979
    169  CA        18.1800   58.8980   34.8260 C.3   260  ALA260      0.1597
    170  C         17.1120   58.3040   35.7490 C.2   260  ALA260      0.2287
    171  O         17.3220   57.2470   36.3980 O.2   260  ALA260     -0.2864
    172  CB        19.1670   59.7230   35.6130 C.3   260  ALA260      0.0319
    173  N         16.1690   55.1330   33.6290 N.3   263  HIS263     -0.1226
    174  CA        17.2760   54.3450   33.1110 C.3   263  HIS263      0.1752
    175  C         18.3280   54.1060   34.1960 C.2   263  HIS263      0.2595
    176  O         19.1310   53.1650   34.0910 O.2   263  HIS263     -0.2718
    177  CB        17.8810   55.0140   31.8760 C.3   263  HIS263      0.0759
    178  CG        17.0390   54.8600   30.6350 C.ar  263  HIS263      0.0818
    179  ND1       16.9350   53.6670   29.9450 N.ar  263  HIS263     -0.2268
    180  CD2       16.2690   55.7530   29.9580 C.ar  263  HIS263      0.1154
    181  CE1       16.1410   53.8390   28.8930 C.ar  263  HIS263      0.1986
    182  NE2       15.7060   55.0930   28.8860 N.ar  263  HIS263     -0.2212
    183  N         18.3260   54.9640   35.2160 N.am  264  MET264     -0.1979
    184  CA        19.2900   54.8100   36.3440 C.3   264  MET264      0.1605
    185  C         18.5660   54.9780   37.6970 C.2   264  MET264      0.2287
    186  O         18.9190   55.8400   38.4840 O.2   264  MET264     -0.2864
    187  CB        20.4750   55.7940   36.1990 C.3   264  MET264      0.0413
    188  CG        21.5170   55.3890   35.1240 C.3   264  MET264      0.0598
    189  SD        22.7600   56.6770   35.0680 S.3   264  MET264     -0.1393
    190  CE        23.4950   56.2570   36.7010 C.3   264  MET264      0.0692
    191  N         22.6070   50.7260   32.6590 N.3   279  VAL279     -0.1231
    192  CA        21.7480   51.4500   31.7240 C.3   279  VAL279      0.1692
    193  C         21.2780   50.4450   30.6960 C.2   279  VAL279      0.2593
    194  O         22.0950   49.8840   29.9270 O.2   279  VAL279     -0.2718
    195  CB        22.5030   52.6050   30.9840 C.3   279  VAL279      0.0266
    196  CG1       21.5370   53.3620   30.0020 C.3   279  VAL279      0.0020
    197  CG2       23.1360   53.5450   32.0000 C.3   279  VAL279      0.0020
    198  N         19.9770   50.2120   30.6630 N.am  280  GLY280     -0.1942
    199  CA        19.4640   49.2060   29.7690 C.3   280  GLY280      0.2014
    200  C         17.9990   49.5030   29.4680 C.2   280  GLY280      0.2638
    201  O         17.5980   50.6470   29.4040 O.2   280  GLY280     -0.2714
    202  N         17.2150   48.4470   29.3020 N.am  281  ASN281     -0.1972
    203  CA        15.8080   48.5530   29.0300 C.3   281  ASN281      0.1688
    204  C         15.0570   48.7010   30.3530 C.2   281  ASN281      0.2292
    205  O         15.0140   47.7280   31.0880 O.2   281  ASN281     -0.2864
    206  CB        15.3790   47.2370   28.3410 C.3   281  ASN281      0.1181
    207  CG        13.9260   47.2450   27.9290 C.2   281  ASN281      0.2629
    208  OD1       13.1210   48.0070   28.4630 O.2   281  ASN281     -0.2716
    209  ND2       13.5800   46.4010   26.9470 N.am  281  ASN281     -0.0877
@<TRIPOS>BOND
     1    64    63    2
     2     7     8    1
     3    63    62    1
     4     8    11    1
     5     8     9    1
     6    62    65    1
     7    62    61    1
     8    10     9    2
     9     9    12   am
    10    74    73    1
    11    90    89    1
    12    89    88    1
    13    65    66    1
    14    67    66   ar
    15    69    70    1
    16    66    68   ar
    17    12    18    1
    18    12    13    1
    19    18    17    1
    20    73    70    1
    21    73    75    1
    22    88    87    1
    23    87    86    1
    24    70    71    1
    25    13    16    1
    26    13    14    1
    27    59    58    2
    28    17    16    1
    29    29    27    1
    30    81    80    1
    31    76    71   am
    32    76    77    1
    33    27    26    2
    34    27    28    1
    35    26    25    1
    36    86    83    1
    37   149   148    2
    38    80    77    1
    39    14    15    2
    40    14    19   am
    41    71    72    2
    42    25    24    1
    43    58    57    1
    44    47    46    2
    45    19    20    1
    46    77    78    1
    47    24    23    1
    48   154   155    2
    49   154   153    1
    50    82    78   am
    51    82    83    1
    52    78    79    2
    53    57    60    1
    54    57    56    1
    55   148   147    1
    56   148   152   am
    57    83    84    1
    58    23    20    1
    59   153   152    1
    60   153   156    1
    61    46    56   am
    62    46    45    1
    63    20    21    1
    64    48    45    1
    65    48    49    1
    66   147   150    1
    67   147   146    1
    68   140   139    2
    69   158   160   ar
    70   158   157   ar
    71    84    85    2
    72   150   151    1
    73    45    44    1
    74    50    49   ar
    75    50    52   ar
    76    49    51   ar
    77   156   157    1
    78   160   161   ar
    79    21    22    2
    80    21    30   am
    81   157   159   ar
    82   139   146   am
    83   139   138    1
    84    52    54   ar
    85    51    53   ar
    86   161   159   ar
    87    30    31    1
    88    33    32    2
    89     4     3    2
    90    98    96    1
    91   138   137    1
    92   138   141    1
    93    54    53   ar
    94    54    55    1
    95     3     2    1
    96    32    31    1
    97    32    34   am
    98   134   133    2
    99    96    95    1
   100   141   142    1
   101    37    36    2
   102    41    43   ar
   103    41    39   ar
   104    35    36    1
   105    35    34    1
   106    35    38    1
   107     2     5    1
   108     2     1    1
   109    91    92    1
   110   209   207   am
   111   133   132    1
   112     5     6    1
   113    43    42   ar
   114   106   104   am
   115   142   143    1
   116    95    92    1
   117    95    97    1
   118    92    93    1
   119    39    38    1
   120    39    40   ar
   121   207   206    1
   122   207   208    2
   123   144   143    2
   124   104   105    2
   125   104   103    1
   126   206   203    1
   127   143   145   am
   128   132   135    1
   129   132   131    1
   130    42    40   ar
   131   135   136    1
   132   182   181   ar
   133   182   180   ar
   134   181   179   ar
   135   127   126    2
   136   203   202    1
   137   203   204    1
   138    93    94    2
   139   202   200   am
   140   103   100    1
   141   201   200    2
   142   200   199    1
   143   131   126   am
   144   167   166    1
   145   126   125    1
   146   199   198    1
   147   194   193    2
   148   179   178   ar
   149   180   178   ar
   150   196   195    1
   151   100   101    1
   152   100    99    1
   153   204   205    2
   154   102   101    2
   155   178   177    1
   156   198   193   am
   157   193   192    1
   158   166   163    1
   159   125   124    1
   160   125   128    1
   161   195   192    1
   162   195   197    1
   163   101   107   am
   164   163   162    1
   165   163   164    1
   166   192   191    1
   167   112   111    1
   168   177   174    1
   169   128   130    1
   170   128   129    1
   171   107   108    1
   172   165   164    2
   173   164   168   am
   174   108   111    1
   175   108   109    1
   176   174   173    1
   177   174   175    1
   178   116   115    2
   179   168   169    1
   180   115   114    1
   181   176   175    2
   182   175   183   am
   183   109   110    2
   184   169   172    1
   185   169   170    1
   186   189   188    1
   187   189   190    1
   188   114   113    1
   189   114   117    1
   190   188   187    1
   191   183   184    1
   192   170   171    2
   193   187   184    1
   194   117   118    1
   195   184   185    1
   196   118   119    1
   197   185   186    2
   198   120   119    1
   199   120   121    2
   200   123   121    1
   201   121   122    1
