@<TRIPOS>MOLECULE
tmp/3bnfA03.pdb
 193 192 0 0 0
SMALL
GASTEIGER

@<TRIPOS>ATOM
      1  N         20.6810   47.9170   16.0680 N.3    62  ALA62      -0.1231
      2  CA        19.9990   48.5720   17.1830 C.3    62  ALA62       0.1679
      3  C         21.0380   48.7260   18.2630 C.2    62  ALA62       0.2434
      4  O         22.0400   48.0250   18.2270 O.2    62  ALA62      -0.2733
      5  CB        18.8430   47.6910   17.6780 C.3    62  ALA62       0.0304
      6  N         20.8140   49.6530   19.2240 N.am   63  PRO63      -0.2729
      7  CA        21.8050   49.9110   20.2890 C.3    63  PRO63       0.1401
      8  C         21.8880   48.6760   21.1300 C.2    63  PRO63       0.2269
      9  O         20.8980   47.9860   21.2380 O.2    63  PRO63      -0.2865
     10  CB        21.1690   51.0470   21.1070 C.3    63  PRO63       0.0296
     11  CG        19.9980   51.5390   20.3230 C.3    63  PRO63       0.0237
     12  CD        19.6070   50.4880   19.3510 C.3    63  PRO63       0.0939
     13  N         23.3860   62.4360   29.4690 N.3   175  CYS175     -0.1235
     14  CA        23.0350   61.5520   28.3860 C.3   175  CYS175      0.1677
     15  C         23.1020   62.2200   27.0150 C.2   175  CYS175      0.2270
     16  O         23.4150   61.5460   25.9890 O.2   175  CYS175     -0.2867
     17  CB        21.6230   61.0530   28.6030 C.3   175  CYS175      0.0956
     18  SG        21.2950   60.3350   30.2570 S.3   175  CYS175     -0.0801
     19  N         23.2980   61.2880   23.0900 N.3   179  HIS179     -0.1241
     20  CA        21.9750   60.8390   22.6630 C.3   179  HIS179      0.1621
     21  C         21.1680   61.9710   21.9890 C.2   179  HIS179      0.2264
     22  O         20.0850   62.2820   22.4060 O.2   179  HIS179     -0.2867
     23  CB        21.2520   60.1200   23.8200 C.3   179  HIS179      0.0745
     24  CG        21.7710   58.7270   24.0910 C.ar  179  HIS179      0.0817
     25  ND1       21.3190   57.6050   23.4080 N.ar  179  HIS179     -0.2268
     26  CD2       22.6900   58.2700   24.9780 C.ar  179  HIS179      0.1154
     27  CE1       21.9240   56.5160   23.8870 C.ar  179  HIS179      0.1986
     28  NE2       22.7990   56.8950   24.8070 N.ar  179  HIS179     -0.2212
     29  N         17.4840   61.3810   20.7010 N.3   243  ASP243     -0.1225
     30  CA        16.7450   60.8070   21.8070 C.3   243  ASP243      0.1805
     31  C         16.3640   61.9080   22.7580 C.2   243  ASP243      0.2597
     32  O         15.2180   61.9670   23.2070 O.2   243  ASP243     -0.2718
     33  CB        17.5540   59.7330   22.5590 C.3   243  ASP243      0.1424
     34  CG        18.1170   58.6260   21.6310 C.2   243  ASP243      0.3668
     35  OD1       17.3440   58.0270   20.9150 O.co2 243  ASP243     -0.2456
     36  OD2       19.3260   58.3480   21.6660 O.co2 243  ASP243     -0.2456
     37  N         17.3160   62.7570   23.1070 N.am  244  TRP244     -0.1976
     38  CA        17.0350   63.8590   24.0630 C.3   244  TRP244      0.1640
     39  C         16.0420   64.8750   23.4820 C.2   244  TRP244      0.2290
     40  O         15.0410   65.2020   24.1110 O.2   244  TRP244     -0.2864
     41  CB        18.3370   64.5090   24.5750 C.3   244  TRP244      0.0576
     42  CG        18.1260   65.6780   25.5700 C.ar  244  TRP244      0.0006
     43  CD1       18.0170   65.6040   26.9320 C.ar  244  TRP244      0.0946
     44  CD2       17.9510   67.0670   25.2340 C.ar  244  TRP244      0.0152
     45  NE1       17.8060   66.8840   27.4750 N.ar  244  TRP244     -0.2442
     46  CE2       17.7620   67.7870   26.4480 C.ar  244  TRP244      0.0810
     47  CE3       17.9420   67.7820   24.0230 C.ar  244  TRP244      0.0012
     48  CZ2       17.5870   69.1820   26.4730 C.ar  244  TRP244      0.0191
     49  CZ3       17.7550   69.1630   24.0520 C.ar  244  TRP244      0.0001
     50  CH2       17.5850   69.8470   25.2780 C.ar  244  TRP244      0.0015
     51  N         12.6120   63.3630   23.5370 N.3   247  TYR247     -0.1241
     52  CA        12.1940   63.1680   24.9140 C.3   247  TYR247      0.1605
     53  C         11.6990   64.4960   25.4490 C.2   247  TYR247      0.2264
     54  O         10.8350   64.5320   26.2970 O.2   247  TYR247     -0.2867
     55  CB        13.3840   62.6250   25.7460 C.3   247  TYR247      0.0534
     56  CG        13.5020   63.1800   27.1570 C.ar  247  TYR247     -0.0201
     57  CD1       12.8710   62.5330   28.2590 C.ar  247  TYR247     -0.0009
     58  CD2       14.2650   64.3230   27.4030 C.ar  247  TYR247     -0.0009
     59  CE1       13.0060   63.0370   29.5560 C.ar  247  TYR247      0.0417
     60  CE2       14.4160   64.8340   28.7110 C.ar  247  TYR247      0.0417
     61  CZ        13.7690   64.1720   29.7760 C.ar  247  TYR247      0.1957
     62  OH        13.9260   64.6860   31.0710 O.3   247  TYR247     -0.2866
     63  N          6.7510   62.8060   29.7190 N.3   252  HIS252     -0.1241
     64  CA         7.7420   62.6510   30.8010 C.3   252  HIS252      0.1621
     65  C          8.7560   63.7870   30.8240 C.2   252  HIS252      0.2264
     66  O          9.0140   64.3430   31.8870 O.2   252  HIS252     -0.2867
     67  CB         8.4220   61.2640   30.7920 C.3   252  HIS252      0.0745
     68  CG         7.5170   60.1280   31.1810 C.ar  252  HIS252      0.0817
     69  ND1        6.9450   59.2820   30.2560 N.ar  252  HIS252     -0.2268
     70  CD2        7.0620   59.7140   32.3980 C.ar  252  HIS252      0.1154
     71  CE1        6.2220   58.3620   30.8860 C.ar  252  HIS252      0.1986
     72  NE2        6.2540   58.6150   32.1880 N.ar  252  HIS252     -0.2212
     73  N         10.5840   64.5740   34.2810 N.3   257  VAL257     -0.1231
     74  CA        11.1790   63.2820   34.5830 C.3   257  VAL257      0.1692
     75  C         12.4730   63.0400   33.7920 C.2   257  VAL257      0.2593
     76  O         12.4290   62.9700   32.5700 O.2   257  VAL257     -0.2718
     77  CB        10.1980   62.1630   34.2490 C.3   257  VAL257      0.0266
     78  CG1       10.7700   60.8520   34.6060 C.3   257  VAL257      0.0020
     79  CG2        8.8400   62.4220   34.9230 C.3   257  VAL257      0.0020
     80  N         13.6080   62.8450   34.4650 N.am  258  SER258     -0.1938
     81  CA        14.8830   62.7330   33.7390 C.3   258  SER258      0.2055
     82  C         15.1270   61.3410   33.1460 C.2   258  SER258      0.2643
     83  O         14.4760   60.3610   33.5310 O.2   258  SER258     -0.2714
     84  CB        16.0270   63.1100   34.6710 C.3   258  SER258      0.2130
     85  OG        16.3260   62.0130   35.4890 O.3   258  SER258     -0.2179
     86  N         16.0420   61.2620   32.1850 N.am  259  CYS259     -0.1967
     87  CA        16.5110   60.0020   31.6280 C.3   259  CYS259      0.1712
     88  C         16.9370   59.1190   32.7440 C.2   259  CYS259      0.2296
     89  O         16.6370   57.9510   32.7380 O.2   259  CYS259     -0.2864
     90  CB        17.7930   60.2310   30.7890 C.3   259  CYS259      0.0983
     91  SG        17.7990   61.5470   29.5370 S.3   259  CYS259     -0.0798
     92  N         14.2140   56.7930   34.8750 N.3   262  CYS262     -0.1221
     93  CA        13.8590   55.4760   34.3770 C.3   262  CYS262      0.1808
     94  C         15.0610   54.5530   34.1030 C.2   262  CYS262      0.2601
     95  O         14.9510   53.3360   34.3000 O.2   262  CYS262     -0.2717
     96  CB        13.0290   55.6090   33.1160 C.3   262  CYS262      0.0970
     97  SG        11.6610   56.7780   33.4160 S.3   262  CYS262     -0.0800
     98  N         16.1690   55.1330   33.6290 N.am  263  HIS263     -0.1975
     99  CA        17.2760   54.3450   33.1110 C.3   263  HIS263      0.1656
    100  C         18.3280   54.1060   34.1960 C.2   263  HIS263      0.2291
    101  O         19.1310   53.1650   34.0910 O.2   263  HIS263     -0.2864
    102  CB        17.8810   55.0140   31.8760 C.3   263  HIS263      0.0771
    103  CG        17.0390   54.8600   30.6350 C.ar  263  HIS263      0.0820
    104  ND1       16.9350   53.6670   29.9450 N.ar  263  HIS263     -0.2267
    105  CD2       16.2690   55.7530   29.9580 C.ar  263  HIS263      0.1154
    106  CE1       16.1410   53.8390   28.8930 C.ar  263  HIS263      0.1986
    107  NE2       15.7060   55.0930   28.8860 N.ar  263  HIS263     -0.2212
    108  N         19.9770   50.2120   30.6630 N.3   280  GLY280     -0.1210
    109  CA        19.4640   49.2060   29.7690 C.3   280  GLY280      0.1956
    110  C         17.9990   49.5030   29.4680 C.2   280  GLY280      0.2612
    111  O         17.5980   50.6470   29.4040 O.2   280  GLY280     -0.2717
    112  N         17.2150   48.4470   29.3020 N.am  281  ASN281     -0.1960
    113  CA        15.8080   48.5530   29.0300 C.3   281  ASN281      0.1804
    114  C         15.0570   48.7010   30.3530 C.2   281  ASN281      0.2463
    115  O         15.0140   47.7280   31.0880 O.2   281  ASN281     -0.2730
    116  CB        15.3790   47.2370   28.3410 C.3   281  ASN281      0.1195
    117  CG        13.9260   47.2450   27.9290 C.2   281  ASN281      0.2630
    118  OD1       13.1210   48.0070   28.4630 O.2   281  ASN281     -0.2716
    119  ND2       13.5800   46.4010   26.9470 N.am  281  ASN281     -0.0877
    120  N         14.4470   49.8940   30.6460 N.am  282  PRO282     -0.2716
    121  CA        13.7270   50.0270   31.9690 C.3   282  PRO282      0.1536
    122  C         12.5750   49.0440   32.2880 C.2   282  PRO282      0.2598
    123  O         12.2240   48.8850   33.4630 O.2   282  PRO282     -0.2715
    124  CB        13.2300   51.4690   31.9780 C.3   282  PRO282      0.0310
    125  CG        14.1190   52.2030   30.9440 C.3   282  PRO282      0.0237
    126  CD        14.4060   51.1650   29.8860 C.3   282  PRO282      0.0939
    127  N         12.0510   48.3630   31.2600 N.am  283  LEU283     -0.1978
    128  CA        10.9570   47.4020   31.4140 C.3   283  LEU283      0.1596
    129  C         11.4330   46.0990   32.0520 C.2   283  LEU283      0.2287
    130  O         10.6310   45.3290   32.5640 O.2   283  LEU283     -0.2864
    131  CB        10.2950   47.1120   30.0490 C.3   283  LEU283      0.0297
    132  CG         9.6850   48.3490   29.4010 C.3   283  LEU283      0.0022
    133  CD1        9.0190   47.9890   28.1170 C.3   283  LEU283      0.0001
    134  CD2        8.7010   48.9930   30.3760 C.3   283  LEU283      0.0001
    135  N          9.6230   52.2320   37.1420 N.3   290  CYS290     -0.1235
    136  CA         8.3010   52.7960   36.9000 C.3   290  CYS290      0.1677
    137  C          7.4710   52.9950   38.1570 C.2   290  CYS290      0.2270
    138  O          6.8320   54.0230   38.3210 O.2   290  CYS290     -0.2867
    139  CB         7.5100   51.9250   35.9230 C.3   290  CYS290      0.0956
    140  SG         8.4310   51.6170   34.4310 S.3   290  CYS290     -0.0801
    141  N          2.9000   49.8530   26.5480 N.3   305  VAL305     -0.1245
    142  CA         4.1070   50.2190   25.8080 C.3   305  VAL305      0.1561
    143  C          4.2220   49.4110   24.5260 C.2   305  VAL305      0.2260
    144  O          4.6070   49.9500   23.4570 O.2   305  VAL305     -0.2867
    145  CB         5.3900   50.1590   26.6970 C.3   305  VAL305      0.0252
    146  CG1        6.6610   50.4620   25.8640 C.3   305  VAL305      0.0019
    147  CG2        5.2240   51.1450   27.9040 C.3   305  VAL305      0.0019
    148  N         15.4920   54.9770   19.2740 N.3   364  HIS364     -0.1226
    149  CA        14.8140   53.7380   19.4980 C.3   364  HIS364      0.1752
    150  C         13.8180   53.6810   20.6530 C.2   364  HIS364      0.2596
    151  O         13.0020   52.7300   20.7320 O.2   364  HIS364     -0.2718
    152  CB        15.8160   52.6260   19.6750 C.3   364  HIS364      0.0759
    153  CG        16.5620   52.3290   18.4210 C.ar  364  HIS364      0.0818
    154  ND1       16.1110   51.4330   17.4650 N.ar  364  HIS364     -0.2268
    155  CD2       17.7010   52.8630   17.9400 C.ar  364  HIS364      0.1154
    156  CE1       16.9950   51.3850   16.4770 C.ar  364  HIS364      0.1986
    157  NE2       17.9610   52.2540   16.7390 N.ar  364  HIS364     -0.2212
    158  N         13.9140   54.6350   21.5710 N.am  365  GLY365     -0.1957
    159  CA        12.9290   54.7280   22.6430 C.3   365  GLY365      0.1869
    160  C         11.8860   55.7940   22.3740 C.2   365  GLY365      0.2309
    161  O         10.9500   55.9310   23.1570 O.2   365  GLY365     -0.2863
    162  N          9.4120   56.0900   20.4660 N.3   367  PHE367     -0.1227
    163  CA         8.0250   55.5680   20.3460 C.3   367  PHE367      0.1736
    164  C          7.3420   55.5760   21.7270 C.2   367  PHE367      0.2595
    165  O          6.1020   55.6370   21.8080 O.2   367  PHE367     -0.2718
    166  CB         8.0610   54.1480   19.7890 C.3   367  PHE367      0.0547
    167  CG         8.4670   53.1000   20.8130 C.ar  367  PHE367     -0.0202
    168  CD1        9.8080   52.7820   21.0250 C.ar  367  PHE367     -0.0042
    169  CD2        7.5010   52.4720   21.5930 C.ar  367  PHE367     -0.0042
    170  CE1       10.1680   51.8200   21.9730 C.ar  367  PHE367     -0.0003
    171  CE2        7.8520   51.5180   22.5560 C.ar  367  PHE367     -0.0003
    172  CZ         9.1750   51.1620   22.7160 C.ar  367  PHE367     -0.0000
    173  N          8.1770   55.5180   22.7950 N.am  368  PHE368     -0.1962
    174  CA         7.7460   55.6110   24.2160 C.3   368  PHE368      0.1771
    175  C          7.9780   56.9870   24.8440 C.2   368  PHE368      0.2619
    176  O          7.1000   57.5070   25.5600 O.2   368  PHE368     -0.2715
    177  CB         8.4330   54.5500   25.1070 C.3   368  PHE368      0.0574
    178  CG         8.1490   54.7360   26.5910 C.ar  368  PHE368     -0.0200
    179  CD1        6.9290   54.3400   27.1370 C.ar  368  PHE368     -0.0042
    180  CD2        9.0570   55.4020   27.4140 C.ar  368  PHE368     -0.0042
    181  CE1        6.6500   54.5330   28.5010 C.ar  368  PHE368     -0.0003
    182  CE2        8.7780   55.6200   28.7720 C.ar  368  PHE368     -0.0003
    183  CZ         7.5450   55.1840   29.3030 C.ar  368  PHE368     -0.0000
    184  N          9.1600   57.5500   24.6050 N.am  369  HIS369     -0.1973
    185  CA         9.5500   58.8490   25.1610 C.3   369  HIS369      0.1656
    186  C          8.5900   59.9240   24.6980 C.2   369  HIS369      0.2291
    187  O          8.2520   60.7980   25.4720 O.2   369  HIS369     -0.2864
    188  CB        10.9860   59.2760   24.7980 C.3   369  HIS369      0.0771
    189  CG        12.0780   58.3210   25.2370 C.ar  369  HIS369      0.0820
    190  ND1       13.2350   58.1600   24.4990 N.ar  369  HIS369     -0.2267
    191  CD2       12.2120   57.5000   26.3220 C.ar  369  HIS369      0.1154
    192  CE1       14.0460   57.2970   25.1180 C.ar  369  HIS369      0.1986
    193  NE2       13.4490   56.8650   26.2260 N.ar  369  HIS369     -0.2212
@<TRIPOS>BOND
     1     1     2    1
     2   156   157   ar
     3   156   154   ar
     4   157   155   ar
     5     2     5    1
     6     2     3    1
     7   154   153   ar
     8   155   153   ar
     9     4     3    2
    10     3     6   am
    11   153   152    1
    12     6    12    1
    13     6     7    1
    14   148   149    1
    15    12    11    1
    16   149   152    1
    17   149   150    1
    18   166   163    1
    19   166   167    1
    20     7    10    1
    21     7     8    1
    22    11    10    1
    23   163   162    1
    24   163   164    1
    25   150   151    2
    26   150   158   am
    27    29    30    1
    28   167   168   ar
    29   167   169   ar
    30    35    34   ar
    31   168   170   ar
    32     8     9    2
    33   158   159    1
    34   169   171   ar
    35    34    36   ar
    36    34    33    1
    37   164   165    2
    38   164   173   am
    39    30    33    1
    40    30    31    1
    41   170   172   ar
    42    21    22    2
    43    21    20    1
    44   160   159    1
    45   160   161    2
    46   171   172   ar
    47    20    19    1
    48    20    23    1
    49    31    37   am
    50    31    32    2
    51   173   174    1
    52    37    38    1
    53    25    27   ar
    54    25    24   ar
    55   144   143    2
    56    39    38    1
    57    39    40    2
    58    51    52    1
    59    23    24    1
    60    27    28   ar
    61    47    49   ar
    62    47    44   ar
    63    49    50   ar
    64    38    41    1
    65    24    26   ar
    66   174   175    1
    67   174   177    1
    68   190   192   ar
    69   190   189   ar
    70   143   142    1
    71    41    42    1
    72   184   175   am
    73   184   185    1
    74   186   185    1
    75   186   187    2
    76   188   185    1
    77   188   189    1
    78    28    26   ar
    79   175   176    2
    80    52    53    1
    81    52    55    1
    82   177   178    1
    83   192   193   ar
    84    44    42   ar
    85    44    46   ar
    86   189   191   ar
    87    50    48   ar
    88    53    54    2
    89    42    43   ar
    90    55    56    1
    91   142   141    1
    92   142   145    1
    93   146   145    1
    94    16    15    2
    95   193   191   ar
    96    46    48   ar
    97    46    45   ar
    98   178   179   ar
    99   178   180   ar
   100   145   147    1
   101    43    45   ar
   102   119   117   am
   103    15    14    1
   104   179   181   ar
   105    56    58   ar
   106    56    57   ar
   107    58    60   ar
   108   180   182   ar
   109   117   116    1
   110   117   118    2
   111   133   132    1
   112    57    59   ar
   113   116   113    1
   114    14    17    1
   115    14    13    1
   116   181   183   ar
   117    17    18    1
   118    60    61   ar
   119   182   183   ar
   120   107   106   ar
   121   107   105   ar
   122   106   104   ar
   123   113   112    1
   124   113   114    1
   125   112   110   am
   126   132   131    1
   127   132   134    1
   128   111   110    2
   129   110   109    1
   130    91    90    1
   131    59    61   ar
   132    63    64    1
   133   109   108    1
   134    61    62    1
   135   126   120    1
   136   126   125    1
   137   104   103   ar
   138   105   103   ar
   139   131   128    1
   140    69    71   ar
   141    69    68   ar
   142   114   120   am
   143   114   115    2
   144   103   102    1
   145   120   121    1
   146    90    87    1
   147    67    64    1
   148    67    68    1
   149    64    65    1
   150    65    66    2
   151    71    72   ar
   152   125   124    1
   153    68    70   ar
   154   127   128    1
   155   127   122   am
   156   128   129    1
   157    87    86    1
   158    87    88    1
   159   102    99    1
   160   121   124    1
   161   121   122    1
   162   129   130    2
   163    86    82   am
   164    72    70   ar
   165   122   123    2
   166    76    75    2
   167    89    88    2
   168    99    98    1
   169    99   100    1
   170    96    97    1
   171    96    93    1
   172    82    83    2
   173    82    81    1
   174    98    94   am
   175    81    80    1
   176    81    84    1
   177    75    80   am
   178    75    74    1
   179   101   100    2
   180    94    95    2
   181    94    93    1
   182    77    74    1
   183    77    78    1
   184    77    79    1
   185    73    74    1
   186    93    92    1
   187   140   139    1
   188    84    85    1
   189   139   136    1
   190   136   135    1
   191   136   137    1
   192   137   138    2
