@<TRIPOS>MOLECULE
tmp/3bnfA01.pdb
 234 227 0 0 0
SMALL
GASTEIGER

@<TRIPOS>ATOM
      1  N         37.8270   53.4140   33.2950 N.3    14  SER14      -0.1217
      2  CA        36.8290   53.4090   34.3710 C.3    14  SER14       0.1889
      3  C         37.2960   52.5640   35.5760 C.2    14  SER14       0.2288
      4  O         36.9530   52.9050   36.6610 O.2    14  SER14      -0.2866
      5  CB        35.5050   52.9510   33.8490 C.3    14  SER14       0.2089
      6  OG        34.9900   53.9780   33.0320 O.3    14  SER14      -0.2183
      7  N         38.3210   53.9190   38.9440 N.3    17  TRP17      -0.1241
      8  CA        37.3470   54.6330   39.7600 C.3    17  TRP17       0.1605
      9  C         36.7500   53.6120   40.7190 C.2    17  TRP17       0.2264
     10  O         36.1150   53.9780   41.7150 O.2    17  TRP17      -0.2867
     11  CB        36.2380   55.1820   38.8970 C.3    17  TRP17       0.0550
     12  CG        36.5770   56.3310   38.0010 C.ar   17  TRP17       0.0003
     13  CD1       37.4550   56.3240   36.9320 C.ar   17  TRP17       0.0946
     14  CD2       36.0260   57.6460   38.0630 C.ar   17  TRP17       0.0152
     15  NE1       37.4780   57.5570   36.3390 N.ar   17  TRP17      -0.2442
     16  CE2       36.6040   58.3900   37.0010 C.ar   17  TRP17       0.0810
     17  CE3       35.0560   58.2690   38.8950 C.ar   17  TRP17       0.0012
     18  CZ2       36.2840   59.7430   36.7620 C.ar   17  TRP17       0.0191
     19  CZ3       34.7200   59.6160   38.6370 C.ar   17  TRP17       0.0001
     20  CH2       35.3500   60.3350   37.5710 C.ar   17  TRP17       0.0015
     21  N         34.3230   53.6780   44.2000 N.3    21  TYR21      -0.1241
     22  CA        32.9140   53.4890   43.8900 C.3    21  TYR21       0.1605
     23  C         32.6090   52.0880   43.4070 C.2    21  TYR21       0.2264
     24  O         32.1790   51.8920   42.2640 O.2    21  TYR21      -0.2867
     25  CB        32.5060   54.5190   42.8470 C.3    21  TYR21       0.0534
     26  CG        32.7680   55.9020   43.3080 C.ar   21  TYR21      -0.0201
     27  CD1       32.2530   56.3600   44.5250 C.ar   21  TYR21      -0.0009
     28  CD2       33.5750   56.7590   42.5780 C.ar   21  TYR21      -0.0009
     29  CE1       32.4920   57.6770   44.9800 C.ar   21  TYR21       0.0417
     30  CE2       33.8250   58.0540   43.0240 C.ar   21  TYR21       0.0417
     31  CZ        33.2990   58.5050   44.2040 C.ar   21  TYR21       0.1957
     32  OH        33.5760   59.7880   44.6010 O.3    21  TYR21      -0.2866
     33  N         28.9030   51.3530   42.0300 N.3    24  GLN24      -0.1231
     34  CA        28.6000   51.9790   40.7310 C.3    24  GLN24       0.1698
     35  C         29.4440   51.3510   39.6220 C.2    24  GLN24       0.2592
     36  O         28.9840   51.1930   38.4900 O.2    24  GLN24      -0.2718
     37  CB        28.8260   53.4800   40.7990 C.3    24  GLN24       0.0381
     38  CG        27.7800   54.2110   41.5990 C.3    24  GLN24       0.0905
     39  CD        28.1560   54.3880   43.0560 C.2    24  GLN24       0.2608
     40  OE1       29.1820   53.8940   43.4960 O.2    24  GLN24      -0.2717
     41  NE2       27.3150   55.1090   43.8150 N.am   24  GLN24      -0.0878
     42  N         30.6760   50.9580   39.9570 N.am   25  PHE25      -0.1976
     43  CA        31.4810   50.2420   39.0110 C.3    25  PHE25       0.1639
     44  C         30.8440   48.9020   38.6550 C.2    25  PHE25       0.2290
     45  O         30.7320   48.5460   37.4960 O.2    25  PHE25      -0.2864
     46  CB        32.9120   50.0430   39.5370 C.3    25  PHE25       0.0560
     47  CG        33.7850   49.3390   38.5650 C.ar   25  PHE25      -0.0200
     48  CD1       34.3980   50.0470   37.5120 C.ar   25  PHE25      -0.0042
     49  CD2       33.9560   47.9500   38.6440 C.ar   25  PHE25      -0.0042
     50  CE1       35.1840   49.4020   36.6000 C.ar   25  PHE25      -0.0003
     51  CE2       34.7410   47.2910   37.7230 C.ar   25  PHE25      -0.0003
     52  CZ        35.3700   48.0140   36.7070 C.ar   25  PHE25      -0.0000
     53  N         27.6990   49.4470   36.5070 N.3    28  TRP28      -0.1241
     54  CA        28.1230   50.0200   35.1940 C.3    28  TRP28       0.1605
     55  C         28.6380   48.9420   34.2380 C.2    28  TRP28       0.2264
     56  O         28.3030   48.9160   33.0430 O.2    28  TRP28      -0.2867
     57  CB        29.1730   51.1220   35.4280 C.3    28  TRP28       0.0550
     58  CG        29.9870   51.5370   34.2050 C.ar   28  TRP28       0.0003
     59  CD1       29.7030   52.5320   33.3150 C.ar   28  TRP28       0.0946
     60  CD2       31.2520   50.9840   33.7940 C.ar   28  TRP28       0.0152
     61  NE1       30.6980   52.6160   32.3690 N.ar   28  TRP28      -0.2442
     62  CE2       31.6470   51.6690   32.6270 C.ar   28  TRP28       0.0810
     63  CE3       32.0810   49.9730   34.3020 C.ar   28  TRP28       0.0012
     64  CZ2       32.8360   51.3690   31.9540 C.ar   28  TRP28       0.0191
     65  CZ3       33.2510   49.6750   33.6260 C.ar   28  TRP28       0.0001
     66  CH2       33.6100   50.3760   32.4640 C.ar   28  TRP28       0.0015
     67  N         26.2940   49.7500   26.9120 N.3    66  HIS66      -0.1241
     68  CA        27.3750   50.7130   26.8100 C.3    66  HIS66       0.1621
     69  C         28.7280   49.9930   26.8130 C.2    66  HIS66       0.2264
     70  O         29.7080   50.5270   26.2880 O.2    66  HIS66      -0.2867
     71  CB        27.3260   51.6960   27.9970 C.3    66  HIS66       0.0745
     72  CG        26.3100   52.7970   27.8420 C.ar   66  HIS66       0.0817
     73  ND1       25.9830   53.6560   28.8800 N.ar   66  HIS66      -0.2268
     74  CD2       25.5810   53.2020   26.7680 C.ar   66  HIS66       0.1154
     75  CE1       25.0900   54.5330   28.4480 C.ar   66  HIS66       0.1986
     76  NE2       24.8420   54.2930   27.1710 N.ar   66  HIS66      -0.2212
     77  N         32.4800   53.8870   26.9450 N.3   130  ILE130     -0.1231
     78  CA        31.5900   54.7190   27.8000 C.3   130  ILE130      0.1692
     79  C         31.9510   54.5440   29.2590 C.2   130  ILE130      0.2593
     80  O         31.6680   53.5040   29.8520 O.2   130  ILE130     -0.2718
     81  CB        30.0790   54.2980   27.7050 C.3   130  ILE130      0.0266
     82  CG1       29.6060   54.0210   26.2580 C.3   130  ILE130      0.0019
     83  CG2       29.1270   55.2740   28.4440 C.3   130  ILE130      0.0020
     84  CD1       29.8090   55.1590   25.2930 C.3   130  ILE130      0.0001
     85  N         32.5470   55.5630   29.8480 N.am  131  GLY131     -0.1942
     86  CA        33.1630   55.3730   31.1730 C.3   131  GLY131      0.2014
     87  C         32.7290   56.4110   32.1680 C.2   131  GLY131      0.2639
     88  O         32.0940   57.4330   31.8220 O.2   131  GLY131     -0.2714
     89  N         33.0990   56.1960   33.4070 N.am  132  CYS132     -0.1967
     90  CA        32.7810   57.1810   34.4410 C.3   132  CYS132      0.1712
     91  C         33.2240   58.5930   34.0300 C.2   132  CYS132      0.2296
     92  O         32.5980   59.5690   34.3790 O.2   132  CYS132     -0.2864
     93  CB        33.4820   56.8270   35.7930 C.3   132  CYS132      0.0983
     94  SG        33.7260   55.1610   36.1330 S.3   132  CYS132     -0.0798
     95  N         33.2130   59.9530   31.1950 N.3   134  ASN134     -0.1225
     96  CA        32.3130   60.6630   30.2820 C.3   134  ASN134      0.1785
     97  C         31.2430   61.5090   31.0440 C.2   134  ASN134      0.2597
     98  O         30.6390   62.4050   30.4430 O.2   134  ASN134     -0.2718
     99  CB        31.6300   59.6970   29.3190 C.3   134  ASN134      0.1169
    100  CG        32.5980   59.1220   28.2870 C.2   134  ASN134      0.2627
    101  OD1       32.9590   57.9500   28.3620 O.2   134  ASN134     -0.2716
    102  ND2       33.0340   59.9800   27.3150 N.am  134  ASN134     -0.0877
    103  N         30.9810   61.2170   32.3190 N.am  135  CYS135     -0.1956
    104  CA        29.8460   61.8630   32.9790 C.3   135  CYS135      0.1843
    105  C         30.2080   62.5680   34.2750 C.2   135  CYS135      0.2625
    106  O         29.4850   63.4250   34.7230 O.2   135  CYS135     -0.2714
    107  CB        28.7290   60.8760   33.2690 C.3   135  CYS135      0.0997
    108  SG        28.0880   60.0870   31.7430 S.3   135  CYS135     -0.0797
    109  N         31.3070   62.1510   34.8580 N.am  136  HIS136     -0.1973
    110  CA        31.6820   62.5470   36.2250 C.3   136  HIS136      0.1656
    111  C         33.0250   63.3100   36.2330 C.2   136  HIS136      0.2291
    112  O         33.9340   62.9310   35.5130 O.2   136  HIS136     -0.2864
    113  CB        31.7330   61.3090   37.0980 C.3   136  HIS136      0.0771
    114  CG        30.3800   60.7020   37.3960 C.ar  136  HIS136      0.0820
    115  ND1       29.4470   61.3080   38.2120 N.ar  136  HIS136     -0.2267
    116  CD2       29.8490   59.5120   37.0320 C.ar  136  HIS136      0.1154
    117  CE1       28.3940   60.5110   38.3280 C.ar  136  HIS136      0.1986
    118  NE2       28.6180   59.3940   37.6470 N.ar  136  HIS136     -0.2212
    119  N         33.5040   64.2230   41.5970 N.3   141  ALA141     -0.1245
    120  CA        32.5000   63.2160   41.1890 C.3   141  ALA141      0.1562
    121  C         31.1640   63.8270   40.7480 C.2   141  ALA141      0.2260
    122  O         30.2290   63.0840   40.4820 O.2   141  ALA141     -0.2867
    123  CB        32.2770   62.1320   42.2530 C.3   141  ALA141      0.0290
    124  N         28.2620   65.4370   38.3720 N.3   143  LEU143     -0.1245
    125  CA        27.9100   65.3040   36.9650 C.3   143  LEU143      0.1561
    126  C         28.5680   66.4440   36.1370 C.2   143  LEU143      0.2260
    127  O         28.5940   67.6230   36.5580 O.2   143  LEU143     -0.2867
    128  CB        26.3700   65.2900   36.7880 C.3   143  LEU143      0.0270
    129  CG        25.6150   64.0550   37.3000 C.3   143  LEU143      0.0019
    130  CD1       24.1540   64.1420   36.9780 C.3   143  LEU143      0.0001
    131  CD2       26.2390   62.7180   36.7510 C.3   143  LEU143      0.0001
    132  N         20.0250   70.2950   38.9990 N.3   167  HIS167     -0.1241
    133  CA        20.4530   68.9050   39.1130 C.3   167  HIS167      0.1621
    134  C         19.5960   67.9000   38.3330 C.2   167  HIS167      0.2264
    135  O         20.1190   66.9800   37.6930 O.2   167  HIS167     -0.2867
    136  CB        20.5290   68.4730   40.5530 C.3   167  HIS167      0.0745
    137  CG        21.3080   67.2190   40.7260 C.ar  167  HIS167      0.0817
    138  ND1       22.6730   67.1680   40.5240 N.ar  167  HIS167     -0.2268
    139  CD2       20.9170   65.9610   41.0250 C.ar  167  HIS167      0.1154
    140  CE1       23.0920   65.9320   40.7270 C.ar  167  HIS167      0.1986
    141  NE2       22.0470   65.1840   41.0370 N.ar  167  HIS167     -0.2212
    142  N         20.7140   65.4250   35.1480 N.3   171  ARG171     -0.1245
    143  CA        20.5410   63.9770   35.1170 C.3   171  ARG171      0.1563
    144  C         19.9890   63.4780   33.7630 C.2   171  ARG171      0.2260
    145  O         19.9060   62.2830   33.5570 O.2   171  ARG171     -0.2867
    146  CB        19.6430   63.5030   36.2410 C.3   171  ARG171      0.0307
    147  CG        20.2870   63.6530   37.6310 C.3   171  ARG171      0.0489
    148  CD        19.2260   63.6800   38.7120 C.3   171  ARG171      0.2205
    149  NE        18.2290   62.6220   38.5490 N.pl3 171  ARG171     -0.0865
    150  CZ        18.4000   61.3500   38.8760 C.cat 171  ARG171      0.5346
    151  NH1       19.5470   60.9350   39.3570 N.pl3 171  ARG171      0.1354
    152  NH2       17.4210   60.4730   38.7050 N.pl3 171  ARG171      0.1354
    153  N         23.5650   64.7970   30.9080 N.3   174  VAL174     -0.1231
    154  CA        24.7540   63.8900   30.8010 C.3   174  VAL174      0.1692
    155  C         24.6190   62.8790   29.6640 C.2   174  VAL174      0.2592
    156  O         25.5650   62.6010   28.9290 O.2   174  VAL174     -0.2718
    157  CB        25.0870   63.2440   32.1190 C.3   174  VAL174      0.0266
    158  CG1       25.5570   64.4280   33.0470 C.3   174  VAL174      0.0020
    159  CG2       23.8790   62.4770   32.7050 C.3   174  VAL174      0.0020
    160  N         23.3860   62.4360   29.4690 N.am  175  CYS175     -0.1970
    161  CA        23.0350   61.5520   28.3860 C.3   175  CYS175      0.1712
    162  C         23.1020   62.2200   27.0150 C.2   175  CYS175      0.2296
    163  O         23.4150   61.5460   25.9890 O.2   175  CYS175     -0.2864
    164  CB        21.6230   61.0530   28.6030 C.3   175  CYS175      0.0983
    165  SG        21.2950   60.3350   30.2570 S.3   175  CYS175     -0.0798
    166  N         17.6770   59.6820   33.6810 N.3   260  ALA260     -0.1245
    167  CA        18.1800   58.8980   34.8260 C.3   260  ALA260      0.1562
    168  C         17.1120   58.3040   35.7490 C.2   260  ALA260      0.2260
    169  O         17.3220   57.2470   36.3980 O.2   260  ALA260     -0.2867
    170  CB        19.1670   59.7230   35.6130 C.3   260  ALA260      0.0290
    171  N         18.3260   54.9640   35.2160 N.3   264  MET264     -0.1245
    172  CA        19.2900   54.8100   36.3440 C.3   264  MET264      0.1570
    173  C         18.5660   54.9780   37.6970 C.2   264  MET264      0.2261
    174  O         18.9190   55.8400   38.4840 O.2   264  MET264     -0.2867
    175  CB        20.4750   55.7940   36.1990 C.3   264  MET264      0.0387
    176  CG        21.5170   55.3890   35.1240 C.3   264  MET264      0.0595
    177  SD        22.7600   56.6770   35.0680 S.3   264  MET264     -0.1393
    178  CE        23.4950   56.2570   36.7010 C.3   264  MET264      0.0692
    179  N         16.9750   54.6350   41.5550 N.3   266  TYR266     -0.1241
    180  CA        17.6510   54.5870   42.8590 C.3   266  TYR266      0.1605
    181  C         17.3170   53.3530   43.6560 C.2   266  TYR266      0.2264
    182  O         16.1950   52.8540   43.6150 O.2   266  TYR266     -0.2867
    183  CB        17.2020   55.7400   43.7250 C.3   266  TYR266      0.0534
    184  CG        17.5420   57.1200   43.2180 C.ar  266  TYR266     -0.0201
    185  CD1       18.8820   57.5220   43.0690 C.ar  266  TYR266     -0.0009
    186  CD2       16.5350   58.0370   42.9210 C.ar  266  TYR266     -0.0009
    187  CE1       19.2170   58.7970   42.6350 C.ar  266  TYR266      0.0417
    188  CE2       16.8540   59.3210   42.4860 C.ar  266  TYR266      0.0417
    189  CZ        18.1950   59.7000   42.3420 C.ar  266  TYR266      0.1957
    190  OH        18.5230   60.9650   41.9160 O.3   266  TYR266     -0.2866
    191  N         21.8260   56.4510   49.3160 N.3   273  LYS273     -0.1231
    192  CA        21.1080   56.2550   48.0420 C.3   273  LYS273      0.1693
    193  C         22.0830   55.8760   46.9070 C.2   273  LYS273      0.2592
    194  O         23.1540   56.4690   46.7850 O.2   273  LYS273     -0.2718
    195  CB        20.3200   57.5110   47.6720 C.3   273  LYS273      0.0285
    196  CG        19.2270   57.2850   46.6510 C.3   273  LYS273      0.0035
    197  CD        18.3140   58.5130   46.5810 C.3   273  LYS273      0.0206
    198  CE        19.0120   59.7270   45.9630 C.3   273  LYS273      0.1093
    199  NZ        18.0430   60.8690   45.8670 N.3   273  LYS273     -0.1314
    200  N         21.7130   54.8890   46.0920 N.am  274  TYR274     -0.1962
    201  CA        22.5970   54.3810   45.0450 C.3   274  TYR274      0.1771
    202  C         21.8420   54.3340   43.7230 C.2   274  TYR274      0.2620
    203  O         20.7260   53.8130   43.6740 O.2   274  TYR274     -0.2715
    204  CB        23.0200   52.9450   45.3610 C.3   274  TYR274      0.0574
    205  CG        23.8230   52.7760   46.6310 C.ar  274  TYR274     -0.0198
    206  CD1       25.2070   52.7920   46.5920 C.ar  274  TYR274     -0.0009
    207  CD2       23.1910   52.5710   47.8740 C.ar  274  TYR274     -0.0009
    208  CE1       25.9680   52.6200   47.7680 C.ar  274  TYR274      0.0417
    209  CE2       23.9290   52.4040   49.0430 C.ar  274  TYR274      0.0417
    210  CZ        25.3210   52.4220   48.9830 C.ar  274  TYR274      0.1957
    211  OH        26.0930   52.2580   50.1280 O.3   274  TYR274     -0.2866
    212  N         22.4620   54.8660   42.6690 N.am  275  SER275     -0.1950
    213  CA        21.8810   54.8570   41.3130 C.3   275  SER275      0.1924
    214  C         22.3310   53.6110   40.5520 C.2   275  SER275      0.2314
    215  O         23.5140   53.2100   40.6050 O.2   275  SER275     -0.2863
    216  CB        22.3250   56.0840   40.5390 C.3   275  SER275      0.2116
    217  OG        21.9170   57.2550   41.1940 O.3   275  SER275     -0.2180
    218  N         23.7100   51.8640   37.7930 N.3   277  HIS277     -0.1241
    219  CA        24.5030   52.1990   36.5850 C.3   277  HIS277      0.1621
    220  C         24.3300   51.2100   35.4040 C.2   277  HIS277      0.2264
    221  O         24.9120   51.4030   34.3380 O.2   277  HIS277     -0.2867
    222  CB        25.9720   52.5600   36.9260 C.3   277  HIS277      0.0745
    223  CG        26.1580   53.9680   37.4400 C.ar  277  HIS277      0.0817
    224  ND1       25.6380   54.3980   38.6490 N.ar  277  HIS277     -0.2268
    225  CD2       26.8540   55.0190   36.9400 C.ar  277  HIS277      0.1154
    226  CE1       25.9710   55.6680   38.8430 C.ar  277  HIS277      0.1986
    227  NE2       26.7440   56.0740   37.8400 N.ar  277  HIS277     -0.2212
    228  N         22.6070   50.7260   32.6590 N.3   279  VAL279     -0.1245
    229  CA        21.7480   51.4500   31.7240 C.3   279  VAL279      0.1561
    230  C         21.2780   50.4450   30.6960 C.2   279  VAL279      0.2260
    231  O         22.0950   49.8840   29.9270 O.2   279  VAL279     -0.2867
    232  CB        22.5030   52.6050   30.9840 C.3   279  VAL279      0.0252
    233  CG1       21.5370   53.3620   30.0020 C.3   279  VAL279      0.0019
    234  CG2       23.1360   53.5450   32.0000 C.3   279  VAL279      0.0019
@<TRIPOS>BOND
     1    84    82    1
     2   163   162    2
     3    82    81    1
     4    70    69    2
     5    74    76   ar
     6    74    72   ar
     7    68    69    1
     8    68    67    1
     9    68    71    1
    10    77    78    1
    11   162   161    1
    12    76    75   ar
    13   102   100   am
    14    81    78    1
    15    81    83    1
    16    78    79    1
    17    72    71    1
    18    72    73   ar
    19   100   101    2
    20   100    99    1
    21   161   164    1
    22   161   160    1
    23    75    73   ar
    24   164   165    1
    25   156   155    2
    26    79    85   am
    27    79    80    2
    28    99    96    1
    29   160   155   am
    30   155   154    1
    31    85    86    1
    32   231   230    2
    33   233   232    1
    34    96    97    1
    35    96    95    1
    36    98    97    2
    37   230   229    1
    38   154   153    1
    39   154   157    1
    40   232   229    1
    41   232   234    1
    42    97   103   am
    43    86    87    1
    44   229   228    1
    45   108   107    1
    46    88    87    2
    47    64    66   ar
    48    64    62   ar
    49   157   159    1
    50   157   158    1
    51    87    89   am
    52   103   104    1
    53    61    62   ar
    54    61    59   ar
    55    66    65   ar
    56    62    60   ar
    57   104   107    1
    58   104   105    1
    59     6     5    1
    60    56    55    2
    61     1     2    1
    62    59    58   ar
    63    89    90    1
    64   145   144    2
    65    65    63   ar
    66   166   167    1
    67   144   143    1
    68    60    58   ar
    69    60    63   ar
    70     5     2    1
    71    91    92    2
    72    91    90    1
    73    58    57    1
    74    55    54    1
    75   105   106    2
    76   105   109   am
    77   221   220    2
    78     2     3    1
    79    90    93    1
    80   167   170    1
    81   167   168    1
    82   109   110    1
    83   177   176    1
    84   177   178    1
    85   143   142    1
    86   143   146    1
    87   176   175    1
    88    54    57    1
    89    54    53    1
    90   171   172    1
    91   220   219    1
    92   112   111    2
    93     3     4    2
    94   168   169    2
    95    93    94    1
    96   126   127    2
    97   126   125    1
    98   175   172    1
    99   110   111    1
   100   110   113    1
   101   146   147    1
   102    15    13   ar
   103    15    16   ar
   104   172   173    1
   105   219   222    1
   106   219   218    1
   107    50    52   ar
   108    50    48   ar
   109    52    51   ar
   110   131   129    1
   111    18    16   ar
   112    18    20   ar
   113   128   125    1
   114   128   129    1
   115   222   223    1
   116    13    12   ar
   117   225   223   ar
   118   225   227   ar
   119   125   124    1
   120   130   129    1
   121    16    14   ar
   122   116   114   ar
   123   116   118   ar
   124   113   114    1
   125   114   115   ar
   126   223   224   ar
   127    45    44    2
   128    48    47   ar
   129    20    19   ar
   130   147   148    1
   131   118   117   ar
   132   135   134    2
   133   173   174    2
   134    51    49   ar
   135   227   226   ar
   136    12    14   ar
   137    12    11    1
   138    14    17   ar
   139   115   117   ar
   140   134   133    1
   141    36    35    2
   142   149   148    1
   143   149   150    2
   144    47    49   ar
   145    47    46    1
   146    19    17   ar
   147   224   226   ar
   148    44    43    1
   149   152   150    1
   150   150   151    1
   151    11     8    1
   152     7     8    1
   153   132   133    1
   154    43    46    1
   155    43    42    1
   156   133   136    1
   157    35    42   am
   158    35    34    1
   159     8     9    1
   160   122   121    2
   161   138   137   ar
   162   138   140   ar
   163   216   217    1
   164   216   213    1
   165   214   215    2
   166   214   213    1
   167   136   137    1
   168     9    10    2
   169   137   139   ar
   170   140   141   ar
   171    34    37    1
   172    34    33    1
   173   121   120    1
   174    37    38    1
   175   139   141   ar
   176   120   119    1
   177   120   123    1
   178   213   212    1
   179   179   180    1
   180    38    39    1
   181   190   189    1
   182    24    23    2
   183   189   188   ar
   184   189   187   ar
   185   188   186   ar
   186    28    30   ar
   187    28    26   ar
   188   187   185   ar
   189   212   202   am
   190    25    26    1
   191    25    22    1
   192   180   181    1
   193   180   183    1
   194   186   184   ar
   195    30    31   ar
   196    39    40    2
   197    39    41   am
   198   185   184   ar
   199   184   183    1
   200    26    27   ar
   201    23    22    1
   202   182   181    2
   203   203   202    2
   204   202   201    1
   205    22    21    1
   206    31    32    1
   207    31    29   ar
   208    27    29   ar
   209   201   204    1
   210   201   200    1
   211   204   205    1
   212   199   198    1
   213   198   197    1
   214   200   193   am
   215   197   196    1
   216   206   205   ar
   217   206   208   ar
   218   205   207   ar
   219   196   195    1
   220   194   193    2
   221   193   192    1
   222   195   192    1
   223   208   210   ar
   224   207   209   ar
   225   192   191    1
   226   210   209   ar
   227   210   211    1
