@<TRIPOS>MOLECULE
tmp/3bniA00.pdb
 146 137 0 0 0
SMALL
GASTEIGER

@<TRIPOS>ATOM
      1  N          3.9040   -3.9940   19.7830 N.3    63  TYR63      -0.1241
      2  CA         5.0030   -3.1960   20.2510 C.3    63  TYR63       0.1605
      3  C          5.1560   -3.4000   21.7370 C.2    63  TYR63       0.2264
      4  O          6.2460   -3.6980   22.1810 O.2    63  TYR63      -0.2867
      5  CB         4.7490   -1.7360   19.9490 C.3    63  TYR63       0.0534
      6  CG         5.7640   -0.7770   20.5210 C.ar   63  TYR63      -0.0201
      7  CD1        7.0360   -0.6280   19.9380 C.ar   63  TYR63      -0.0009
      8  CD2        5.4310    0.0500   21.5880 C.ar   63  TYR63      -0.0009
      9  CE1        7.9370    0.2830   20.4330 C.ar   63  TYR63       0.0417
     10  CE2        6.3240    0.9900   22.0760 C.ar   63  TYR63       0.0417
     11  CZ         7.5760    1.0990   21.4950 C.ar   63  TYR63       0.1957
     12  OH         8.4630    2.0250   21.9670 O.3    63  TYR63      -0.2866
     13  N         16.2170    0.6420   28.9840 N.3    82  ALA82      -0.1231
     14  CA        14.7700    0.7830   28.7880 C.3    82  ALA82       0.1694
     15  C         14.4430    1.6980   27.6020 C.2    82  ALA82       0.2591
     16  O         13.6250    1.3380   26.7150 O.2    82  ALA82      -0.2718
     17  CB        14.1020    1.3230   30.0760 C.3    82  ALA82       0.0304
     18  N         15.0670    2.8740   27.6080 N.am   83  LEU83      -0.1980
     19  CA        15.0670    3.8450   26.4830 C.3    83  LEU83       0.1596
     20  C         15.5520    3.2800   25.1560 C.2    83  LEU83       0.2287
     21  O         14.9050    3.5220   24.1280 O.2    83  LEU83      -0.2864
     22  CB        15.8890    5.1090   26.7990 C.3    83  LEU83       0.0297
     23  CG        15.9890    6.1570   25.6640 C.3    83  LEU83       0.0022
     24  CD1       14.6280    6.7450   25.2850 C.3    83  LEU83       0.0001
     25  CD2       16.9430    7.3200   26.0280 C.3    83  LEU83       0.0001
     26  N         12.6650    0.7210   23.8820 N.3    86  VAL86      -0.1231
     27  CA        11.4600    1.3030   23.3620 C.3    86  VAL86       0.1692
     28  C         11.7320    2.0010   22.0620 C.2    86  VAL86       0.2591
     29  O         11.0130    1.7860   21.0990 O.2    86  VAL86      -0.2718
     30  CB        10.7200    2.2190   24.3840 C.3    86  VAL86       0.0266
     31  CG1       10.3070    1.4080   25.6020 C.3    86  VAL86       0.0020
     32  CG2       11.5680    3.4020   24.8370 C.3    86  VAL86       0.0020
     33  N         12.7840    2.8000   22.0030 N.am   87  LEU87      -0.1980
     34  CA        13.1390    3.4780   20.7900 C.3    87  LEU87       0.1596
     35  C         13.5200    2.5370   19.6470 C.2    87  LEU87       0.2287
     36  O         13.0450    2.7200   18.5230 O.2    87  LEU87      -0.2864
     37  CB        14.3000    4.4310   21.0510 C.3    87  LEU87       0.0297
     38  CG        14.3630    5.8480   20.4940 C.3    87  LEU87       0.0022
     39  CD1       15.8540    6.1690   20.2850 C.3    87  LEU87       0.0001
     40  CD2       13.5280    6.1700   19.2410 C.3    87  LEU87       0.0001
     41  N         10.6160    0.5190   18.2960 N.3    90  TYR90      -0.1241
     42  CA         9.7790    1.4000   17.5290 C.3    90  TYR90       0.1605
     43  C         10.4300    1.6990   16.1720 C.2    90  TYR90       0.2264
     44  O          9.7380    1.7200   15.1390 O.2    90  TYR90      -0.2867
     45  CB         9.5210    2.7010   18.3070 C.3    90  TYR90       0.0534
     46  CG         8.6340    3.6960   17.5450 C.ar   90  TYR90      -0.0201
     47  CD1        7.2930    3.3920   17.2690 C.ar   90  TYR90      -0.0009
     48  CD2        9.1320    4.8980   17.0740 C.ar   90  TYR90      -0.0009
     49  CE1        6.4710    4.2720   16.5780 C.ar   90  TYR90       0.0417
     50  CE2        8.3030    5.7780   16.3790 C.ar   90  TYR90       0.0417
     51  CZ         6.9740    5.4370   16.1280 C.ar   90  TYR90       0.1957
     52  OH         6.1040    6.2840   15.4610 O.3    90  TYR90      -0.2866
     53  N          0.4930    3.9800   12.4180 N.3   104  ASP104     -0.1225
     54  CA         1.3770    3.9410   13.5390 C.3   104  ASP104      0.1805
     55  C          0.6640    3.1810   14.6680 C.2   104  ASP104      0.2597
     56  O          0.3270    1.9820   14.5790 O.2   104  ASP104     -0.2718
     57  CB         1.4560    5.4210   13.9760 C.3   104  ASP104      0.1424
     58  CG         2.7710    5.8120   14.5010 C.2   104  ASP104      0.3668
     59  OD1        2.8950    5.8590   15.7530 O.co2 104  ASP104     -0.2456
     60  OD2        3.6630    6.1170   13.6730 O.co2 104  ASP104     -0.2456
     61  N          0.4110    3.9360   15.7360 N.am  105  PHE105     -0.1976
     62  CA        -0.4410    3.4860   16.8020 C.3   105  PHE105      0.1639
     63  C         -1.7690    4.2140   16.7400 C.2   105  PHE105      0.2290
     64  O         -2.6010    4.0320   17.6130 O.2   105  PHE105     -0.2864
     65  CB         0.2440    3.6760   18.1480 C.3   105  PHE105      0.0560
     66  CG         1.5490    2.9700   18.2480 C.ar  105  PHE105     -0.0200
     67  CD1        1.6550    1.6300   17.8960 C.ar  105  PHE105     -0.0042
     68  CD2        2.6780    3.6360   18.6870 C.ar  105  PHE105     -0.0042
     69  CE1        2.8600    0.9760   17.9760 C.ar  105  PHE105     -0.0003
     70  CE2        3.8900    2.9720   18.7730 C.ar  105  PHE105     -0.0003
     71  CZ         3.9810    1.6580   18.4190 C.ar  105  PHE105     -0.0000
     72  N         -0.3560    6.1420   23.8910 N.3   108  VAL108     -0.1245
     73  CA         0.9190    5.4560   23.7620 C.3   108  VAL108      0.1561
     74  C          1.8040    5.7840   24.9710 C.2   108  VAL108      0.2260
     75  O          2.5450    4.9310   25.4510 O.2   108  VAL108     -0.2867
     76  CB         1.6580    5.9120   22.4890 C.3   108  VAL108      0.0252
     77  CG1        2.9940    5.1990   22.3490 C.3   108  VAL108      0.0019
     78  CG2        0.7810    5.6990   21.2740 C.3   108  VAL108      0.0019
     79  N          3.0810    3.2180   27.6720 N.3   112  LEU112     -0.1245
     80  CA         4.4930    3.2380   27.9950 C.3   112  LEU112      0.1561
     81  C          4.7670    3.6710   29.4150 C.2   112  LEU112      0.2260
     82  O          5.6290    3.0880   30.0530 O.2   112  LEU112     -0.2867
     83  CB         5.3130    4.0800   26.9930 C.3   112  LEU112      0.0270
     84  CG         5.6740    3.4280   25.6360 C.3   112  LEU112      0.0019
     85  CD1        6.1540    4.4560   24.5690 C.3   112  LEU112      0.0001
     86  CD2        6.7200    2.3120   25.7810 C.3   112  LEU112      0.0001
     87  N          6.7480    1.0490   31.5630 N.3   116  LEU116     -0.1245
     88  CA         8.1130    1.3640   32.0030 C.3   116  LEU116      0.1561
     89  C          8.2640    1.6860   33.4860 C.2   116  LEU116      0.2260
     90  O          9.2950    1.3470   34.1000 O.2   116  LEU116     -0.2867
     91  CB         8.7130    2.4660   31.1480 C.3   116  LEU116      0.0270
     92  CG         8.9820    1.9710   29.7210 C.3   116  LEU116      0.0019
     93  CD1        9.3160    3.1630   28.8150 C.3   116  LEU116      0.0001
     94  CD2       10.0880    0.9090   29.6980 C.3   116  LEU116      0.0001
     95  N          7.1610   11.4800   30.7260 N.3   132  PHE132     -0.1241
     96  CA         6.9390   10.4400   29.7630 C.3   132  PHE132      0.1605
     97  C          6.2100   10.9220   28.5650 C.2   132  PHE132      0.2264
     98  O          6.5430   10.5310   27.4320 O.2   132  PHE132     -0.2867
     99  CB         6.0660    9.3680   30.3730 C.3   132  PHE132      0.0534
    100  CG         6.8160    8.1730   30.8470 C.ar  132  PHE132     -0.0203
    101  CD1        7.2000    8.0630   32.1850 C.ar  132  PHE132     -0.0042
    102  CD2        7.0820    7.1190   29.9660 C.ar  132  PHE132     -0.0042
    103  CE1        7.8640    6.9370   32.6400 C.ar  132  PHE132     -0.0003
    104  CE2        7.7500    6.0050   30.4140 C.ar  132  PHE132     -0.0003
    105  CZ         8.1360    5.9170   31.7740 C.ar  132  PHE132     -0.0000
    106  N          8.7490   13.0580   26.7180 N.3   135  ALA135     -0.1231
    107  CA         9.6610   12.1650   26.0070 C.3   135  ALA135      0.1694
    108  C          9.0480   11.4740   24.7950 C.2   135  ALA135      0.2591
    109  O          9.6750   11.3870   23.7240 O.2   135  ALA135     -0.2718
    110  CB        10.2460   11.1020   26.9730 C.3   135  ALA135      0.0304
    111  N          7.8440   10.9390   24.9570 N.am  136  VAL136     -0.1980
    112  CA         7.1890   10.1920   23.8640 C.3   136  VAL136      0.1595
    113  C          6.7940   11.1170   22.7040 C.2   136  VAL136      0.2287
    114  O          6.9350   10.7540   21.5150 O.2   136  VAL136     -0.2864
    115  CB         5.9670    9.4070   24.3770 C.3   136  VAL136      0.0276
    116  CG1        5.0860    8.9500   23.2310 C.3   136  VAL136      0.0022
    117  CG2        6.4130    8.2090   25.2490 C.3   136  VAL136      0.0022
    118  N         10.1610   12.0610   20.9460 N.3   139  ALA139     -0.1231
    119  CA        10.6550   10.9420   20.1690 C.3   139  ALA139      0.1694
    120  C          9.8020   10.7290   18.9140 C.2   139  ALA139      0.2592
    121  O         10.3320   10.4980   17.8360 O.2   139  ALA139     -0.2718
    122  CB        10.7050    9.7070   21.0190 C.3   139  ALA139      0.0304
    123  N          8.4830   10.7910   19.0330 N.am  140  ASP140     -0.1974
    124  CA         7.6330   10.7070   17.8480 C.3   140  ASP140      0.1709
    125  C          8.0170   11.7730   16.8000 C.2   140  ASP140      0.2293
    126  O          8.1380   11.4580   15.6140 O.2   140  ASP140     -0.2864
    127  CB         6.1730   10.9160   18.2570 C.3   140  ASP140      0.1436
    128  CG         5.1720   10.6440   17.1090 C.2   140  ASP140      0.3671
    129  OD1        5.5010    9.9870   16.0930 O.co2 140  ASP140     -0.2456
    130  OD2        4.0270   11.0840   17.2320 O.co2 140  ASP140     -0.2456
    131  N         17.1770   12.6130   24.3320 N.3   165  LEU165     -0.1245
    132  CA        16.3750   11.9040   25.3430 C.3   165  LEU165      0.1561
    133  C         17.1760   11.4300   26.5590 C.2   165  LEU165      0.2260
    134  O         16.6900   11.4740   27.6640 O.2   165  LEU165     -0.2867
    135  CB        15.6320   10.7310   24.6990 C.3   165  LEU165      0.0270
    136  CG        14.5940   11.1440   23.6240 C.3   165  LEU165      0.0019
    137  CD1       14.0910   10.0320   22.7570 C.3   165  LEU165      0.0001
    138  CD2       13.4160   11.8120   24.2990 C.3   165  LEU165      0.0001
    139  N         16.3010   12.6910   30.3200 N.3   169  LEU169     -0.1245
    140  CA        16.0390   11.7020   31.3620 C.3   169  LEU169      0.1561
    141  C         17.1350   11.7000   32.3950 C.2   169  LEU169      0.2260
    142  O         16.8580   11.5570   33.5570 O.2   169  LEU169     -0.2867
    143  CB        15.8760   10.2880   30.7630 C.3   169  LEU169      0.0270
    144  CG        14.7500   10.1010   29.7410 C.3   169  LEU169      0.0019
    145  CD1       14.7970    8.6300   29.3000 C.3   169  LEU169      0.0001
    146  CD2       13.3720   10.4330   30.3290 C.3   169  LEU169      0.0001
@<TRIPOS>BOND
     1    53    54    1
     2    54    57    1
     3    54    55    1
     4    60    58   ar
     5    57    58    1
     6    58    59   ar
     7    56    55    2
     8    55    61   am
     9    44    43    2
    10    52    51    1
    11   126   125    2
    12    61    62    1
    13   129   128   ar
    14    51    50   ar
    15    51    49   ar
    16    43    42    1
    17    50    48   ar
    18    49    47   ar
    19    63    62    1
    20    63    64    2
    21   125   124    1
    22    62    65    1
    23    48    46   ar
    24   128   130   ar
    25   128   127    1
    26    47    46   ar
    27    42    41    1
    28    42    45    1
    29    46    45    1
    30   121   120    2
    31   124   127    1
    32   124   123    1
    33    67    69   ar
    34    67    66   ar
    35    69    71   ar
    36    65    66    1
    37    66    68   ar
    38    71    70   ar
    39    36    35    2
    40    68    70   ar
    41   120   123   am
    42   120   119    1
    43    40    38    1
    44    35    34    1
    45     1     2    1
    46     7     9   ar
    47     7     6   ar
    48     5     2    1
    49     5     6    1
    50   119   118    1
    51   119   122    1
    52     2     3    1
    53    39    38    1
    54     9    11   ar
    55    38    37    1
    56     6     8   ar
    57    34    37    1
    58    34    33    1
    59    29    28    2
    60    78    76    1
    61    11    12    1
    62    11    10   ar
    63   114   113    2
    64     8    10   ar
    65     3     4    2
    66    33    28   am
    67    28    27    1
    68    77    76    1
    69    76    73    1
    70   113   112    1
    71   137   136    1
    72   116   115    1
    73    27    26    1
    74    27    30    1
    75   136   138    1
    76   136   135    1
    77   109   108    2
    78    73    72    1
    79    73    74    1
    80   112   115    1
    81   112   111    1
    82    21    20    2
    83   131   132    1
    84   115   117    1
    85    30    32    1
    86    30    31    1
    87    85    84    1
    88   135   132    1
    89   108   111   am
    90   108   107    1
    91    74    75    2
    92    20    19    1
    93    24    23    1
    94   132   133    1
    95    84    86    1
    96    84    83    1
    97    23    25    1
    98    23    22    1
    99   107   106    1
   100   107   110    1
   101    19    22    1
   102    19    18    1
   103   133   134    2
   104    16    15    2
   105    83    80    1
   106    98    97    2
   107    15    18   am
   108    15    14    1
   109    79    80    1
   110    80    81    1
   111    97    96    1
   112    14    13    1
   113    14    17    1
   114    93    92    1
   115   145   144    1
   116    81    82    2
   117    94    92    1
   118    92    91    1
   119   144   146    1
   120   144   143    1
   121    96    99    1
   122    96    95    1
   123   102   104   ar
   124   102   100   ar
   125   139   140    1
   126    99   100    1
   127   104   105   ar
   128   143   140    1
   129   100   101   ar
   130    91    88    1
   131   140   141    1
   132    87    88    1
   133   105   103   ar
   134    88    89    1
   135   101   103   ar
   136   141   142    2
   137    89    90    2
