@<TRIPOS>MOLECULE
tmp/3bnkB00.pdb
 198 190 0 0 0
SMALL
GASTEIGER

@<TRIPOS>ATOM
      1  N         -4.8020   -8.4820    8.7350 N.3    15  MET15      -0.1245
      2  CA        -3.9670   -7.4830    9.3640 C.3    15  MET15       0.1570
      3  C         -3.0560   -6.8300    8.3300 C.2    15  MET15       0.2261
      4  O         -2.7380   -7.4360    7.3050 O.2    15  MET15      -0.2867
      5  CB        -3.1060   -8.1100   10.4620 C.3    15  MET15       0.0387
      6  CG        -3.8760   -8.5320   11.7030 C.3    15  MET15       0.0595
      7  SD        -2.8730   -9.5520   12.7940 S.3    15  MET15      -0.1393
      8  CE        -3.1750  -11.1740   12.0670 C.3    15  MET15       0.0692
      9  N          0.8360   -5.3120    7.4160 N.3    17  VAL17      -0.1245
     10  CA         2.1840   -5.7850    7.7470 C.3    17  VAL17       0.1561
     11  C          3.1170   -4.5950    7.8080 C.2    17  VAL17       0.2260
     12  O          3.3710   -3.9130    6.7990 O.2    17  VAL17      -0.2867
     13  CB         2.7190   -6.8570    6.7550 C.3    17  VAL17       0.0252
     14  CG1        4.1690   -7.2030    7.0530 C.3    17  VAL17       0.0019
     15  CG2        1.8590   -8.0970    6.8080 C.3    17  VAL17       0.0019
     16  N         15.9370   -0.9080   17.0040 N.3    29  ASN29      -0.1240
     17  CA        15.2840   -2.1910   16.9790 C.3    29  ASN29       0.1653
     18  C         14.1150   -2.1420   16.0200 C.2    29  ASN29       0.2266
     19  O         13.5310   -1.0840   15.8060 O.2    29  ASN29      -0.2867
     20  CB        14.8190   -2.5970   18.3790 C.3    29  ASN29       0.1155
     21  CG        14.5100   -4.0690   18.4750 C.2    29  ASN29       0.2627
     22  OD1       15.2820   -4.9100   18.0150 O.2    29  ASN29      -0.2716
     23  ND2       13.3820   -4.3920   19.0770 N.am   29  ASN29      -0.0877
     24  N         10.6270   -4.7440   15.0190 N.3    31  MET31      -0.1230
     25  CA         9.8280   -5.9530   15.1180 C.3    31  MET31       0.1702
     26  C          8.6740   -5.8960   14.1200 C.2    31  MET31       0.2592
     27  O          8.1700   -4.8140   13.8120 O.2    31  MET31      -0.2718
     28  CB         9.2940   -6.1520   16.5440 C.3    31  MET31       0.0401
     29  CG         8.4080   -5.0260   17.0590 C.3    31  MET31       0.0596
     30  SD         7.4360   -5.5060   18.4910 S.3    31  MET31      -0.1393
     31  CE         5.9220   -6.1050   17.7520 C.3    31  MET31       0.0692
     32  N          8.2540   -7.0680   13.6310 N.am   32  ALA32      -0.1966
     33  CA         7.0870   -7.1700   12.7510 C.3    32  ALA32       0.1728
     34  C          5.8040   -6.8950   13.5350 C.2    32  ALA32       0.2616
     35  O          5.6510   -7.3600   14.6820 O.2    32  ALA32      -0.2715
     36  CB         7.0520   -8.5300   12.0590 C.3    32  ALA32       0.0334
     37  N          4.9170   -6.0870   12.9490 N.am   33  LEU33      -0.1963
     38  CA         3.7210   -5.5930   13.6550 C.3    33  LEU33       0.1728
     39  C          2.4800   -5.5790   12.7640 C.2    33  LEU33       0.2617
     40  O          2.4710   -4.9580   11.7160 O.2    33  LEU33      -0.2715
     41  CB         3.9620   -4.1850   14.2510 C.3    33  LEU33       0.0311
     42  CG         2.7460   -3.4430   14.8400 C.3    33  LEU33       0.0022
     43  CD1        2.5290   -3.8340   16.2820 C.3    33  LEU33       0.0001
     44  CD2        2.8990   -1.9110   14.7370 C.3    33  LEU33       0.0001
     45  N          1.4310   -6.2590   13.2110 N.am   34  GLY34      -0.1940
     46  CA         0.1570   -6.3180   12.4910 C.3    34  GLY34       0.2014
     47  C         -0.9290   -5.6040   13.2680 C.2    34  GLY34       0.2638
     48  O         -1.9530   -5.2160   12.6990 O.2    34  GLY34      -0.2714
     49  N         -0.7080   -5.4230   14.5750 N.am   35  TRP35      -0.1973
     50  CA        -1.6680   -4.7280   15.4410 C.3    35  TRP35       0.1640
     51  C         -1.4120   -3.2170   15.4150 C.2    35  TRP35       0.2290
     52  O         -0.8680   -2.6540   16.3800 O.2    35  TRP35      -0.2864
     53  CB        -1.6100   -5.2630   16.8880 C.3    35  TRP35       0.0576
     54  CG        -1.9870   -6.7450   17.0530 C.ar   35  TRP35       0.0006
     55  CD1       -2.0960   -7.6890   16.0610 C.ar   35  TRP35       0.0946
     56  CD2       -2.2460   -7.4330   18.2840 C.ar   35  TRP35       0.0152
     57  NE1       -2.4170   -8.9100   16.5930 N.ar   35  TRP35      -0.2442
     58  CE2       -2.5080   -8.7890   17.9580 C.ar   35  TRP35       0.0810
     59  CE3       -2.2610   -7.0440   19.6330 C.ar   35  TRP35       0.0012
     60  CZ2       -2.8170   -9.7510   18.9310 C.ar   35  TRP35       0.0191
     61  CZ3       -2.5600   -8.0040   20.6000 C.ar   35  TRP35       0.0001
     62  CH2       -2.8310   -9.3450   20.2410 C.ar   35  TRP35       0.0015
     63  N         -0.0620   -2.4020   19.0790 N.3    49  GLY49      -0.1210
     64  CA        -0.1990   -3.4930   20.0420 C.3    49  GLY49       0.1956
     65  C          1.0350   -4.3780   20.1510 C.2    49  GLY49       0.2612
     66  O          1.4740   -4.9960   19.1690 O.2    49  GLY49      -0.2717
     67  N          1.5980   -4.4290   21.3570 N.am   50  VAL50      -0.1965
     68  CA         2.9110   -5.0260   21.5580 C.3    50  VAL50       0.1727
     69  C          2.9300   -5.9030   22.8050 C.2    50  VAL50       0.2616
     70  O          2.7300   -5.4230   23.9140 O.2    50  VAL50      -0.2715
     71  CB         4.0670   -3.9640   21.6190 C.3    50  VAL50       0.0290
     72  CG1        5.4180   -4.6660   21.6300 C.3    50  VAL50       0.0023
     73  CG2        4.0150   -2.9720   20.4350 C.3    50  VAL50       0.0023
     74  N          3.1850   -7.1920   22.6010 N.am   51  ASN51      -0.1972
     75  CA         3.2750   -8.1300   23.7110 C.3    51  ASN51       0.1688
     76  C          4.3040   -7.7180   24.7590 C.2    51  ASN51       0.2292
     77  O          5.4100   -7.2810   24.4360 O.2    51  ASN51      -0.2864
     78  CB         3.5220   -9.5600   23.2230 C.3    51  ASN51       0.1181
     79  CG         3.0920  -10.5970   24.2450 C.2    51  ASN51       0.2629
     80  OD1        3.7980  -10.8540   25.2140 O.2    51  ASN51      -0.2716
     81  ND2        1.9160  -11.1800   24.0430 N.am   51  ASN51      -0.0877
     82  N          8.0270   -8.8850   24.5940 N.3    54  HIS54      -0.1226
     83  CA         9.0010   -8.3850   23.6070 C.3    54  HIS54       0.1752
     84  C          9.9980   -7.3640   24.1570 C.2    54  HIS54       0.2596
     85  O          9.7950   -6.7580   25.2250 O.2    54  HIS54      -0.2718
     86  CB         8.3100   -7.8120   22.3660 C.3    54  HIS54       0.0759
     87  CG         7.3450   -8.7510   21.7160 C.ar   54  HIS54       0.0818
     88  ND1        7.5420  -10.1120   21.6670 N.ar   54  HIS54      -0.2268
     89  CD2        6.1840   -8.5170   21.0600 C.ar   54  HIS54       0.1154
     90  CE1        6.5310  -10.6790   21.0320 C.ar   54  HIS54       0.1986
     91  NE2        5.6970   -9.7330   20.6510 N.ar   54  HIS54      -0.2212
     92  N         11.0700   -7.1700   23.3890 N.am   55  TYR55      -0.1962
     93  CA        12.1550   -6.2590   23.7370 C.3    55  TYR55       0.1771
     94  C         11.7890   -4.8150   23.4010 C.2    55  TYR55       0.2620
     95  O         12.2340   -3.8770   24.0660 O.2    55  TYR55      -0.2715
     96  CB        13.4150   -6.6880   22.9750 C.3    55  TYR55       0.0574
     97  CG        14.6830   -5.9590   23.3250 C.ar   55  TYR55      -0.0198
     98  CD1       15.2830   -6.1150   24.5840 C.ar   55  TYR55      -0.0009
     99  CD2       15.3150   -5.1490   22.3890 C.ar   55  TYR55      -0.0009
    100  CE1       16.4620   -5.4640   24.9020 C.ar   55  TYR55       0.0417
    101  CE2       16.4940   -4.4950   22.6960 C.ar   55  TYR55       0.0417
    102  CZ        17.0630   -4.6540   23.9530 C.ar   55  TYR55       0.1957
    103  OH        18.2360   -3.9970   24.2610 O.3    55  TYR55      -0.2866
    104  N         10.9600   -4.6590   22.3690 N.am   56  THR56      -0.1951
    105  CA        10.5780   -3.3530   21.8400 C.3    56  THR56       0.1897
    106  C          9.9310   -2.3810   22.8730 C.2    56  THR56       0.2313
    107  O         10.2960   -1.1980   22.8840 O.2    56  THR56      -0.2863
    108  CB         9.7390   -3.5210   20.5380 C.3    56  THR56       0.1794
    109  OG1       10.5390   -4.1820   19.5400 O.3    56  THR56      -0.2208
    110  CG2        9.2440   -2.1790   19.9900 C.3    56  THR56       0.0378
    111  N          9.6250  -10.8880    7.9350 N.3    80  ASP80      -0.1239
    112  CA         9.2800  -12.0570    8.7440 C.3    80  ASP80       0.1674
    113  C         10.3590  -12.3670    9.7900 C.2    80  ASP80       0.2266
    114  O         10.0460  -12.6890   10.9460 O.2    80  ASP80      -0.2867
    115  CB         9.0490  -13.2580    7.8380 C.3    80  ASP80       0.1410
    116  CG         8.2230  -14.3270    8.4970 C.2    80  ASP80       0.3668
    117  OD1        7.1250  -14.0140    9.0160 O.co2  80  ASP80      -0.2456
    118  OD2        8.6830  -15.4850    8.5010 O.co2  80  ASP80      -0.2456
    119  N         12.2620  -10.2540   11.2450 N.3    82  CYS82      -0.1221
    120  CA        12.0630   -9.2820   12.3160 C.3    82  CYS82       0.1808
    121  C         10.9340   -9.6740   13.2640 C.2    82  CYS82       0.2602
    122  O         10.8710   -9.1710   14.3780 O.2    82  CYS82      -0.2717
    123  CB        11.7910   -7.8980   11.7200 C.3    82  CYS82       0.0970
    124  SG        13.2990   -7.1200   11.1620 S.3    82  CYS82      -0.0800
    125  N         10.0440  -10.5630   12.8150 N.am   83  GLY83      -0.1942
    126  CA         9.0020  -11.1110   13.6780 C.3    83  GLY83       0.2014
    127  C          9.3190  -12.4780   14.2630 C.2    83  GLY83       0.2639
    128  O          8.4580  -13.0840   14.8800 O.2    83  GLY83      -0.2714
    129  N         10.5480  -12.9530   14.0710 N.am   84  LEU84      -0.1963
    130  CA        10.9860  -14.2790   14.5250 C.3    84  LEU84       0.1728
    131  C         12.0800  -14.1760   15.5840 C.2    84  LEU84       0.2616
    132  O         12.2480  -15.0770   16.4010 O.2    84  LEU84      -0.2715
    133  CB        11.5060  -15.1080   13.3440 C.3    84  LEU84       0.0311
    134  CG        10.4740  -15.7990   12.4460 C.3    84  LEU84       0.0022
    135  CD1       11.1530  -16.4040   11.2120 C.3    84  LEU84       0.0001
    136  CD2        9.7020  -16.8680   13.2210 C.3    84  LEU84       0.0001
    137  N         12.8190  -13.0670   15.5620 N.am   85  VAL85      -0.1963
    138  CA        13.9390  -12.8860   16.4700 C.3    85  VAL85       0.1727
    139  C         13.7820  -11.6350   17.3330 C.2    85  VAL85       0.2617
    140  O         13.2310  -10.6240   16.8950 O.2    85  VAL85      -0.2715
    141  CB        15.3090  -12.8850   15.7200 C.3    85  VAL85       0.0290
    142  CG1       16.4180  -13.0520   16.7130 C.3    85  VAL85       0.0023
    143  CG2       15.3900  -14.0530   14.7550 C.3    85  VAL85       0.0023
    144  N         14.2540  -11.7200   18.5700 N.am   86  SER86      -0.1936
    145  CA        14.1550  -10.5940   19.4910 C.3    86  SER86       0.2055
    146  C         15.4460   -9.7840   19.5600 C.2    86  SER86       0.2643
    147  O         16.5410  -10.3440   19.4760 O.2    86  SER86      -0.2714
    148  CB        13.7420  -11.0820   20.8810 C.3    86  SER86       0.2130
    149  OG        13.7800  -10.0270   21.8160 O.3    86  SER86      -0.2179
    150  N         15.3010   -8.4670   19.7200 N.am   87  GLY87      -0.1954
    151  CA        16.4320   -7.5660   19.9000 C.3    87  GLY87       0.1869
    152  C         17.1860   -7.8300   21.1920 C.2    87  GLY87       0.2309
    153  O         18.3090   -7.3530   21.3690 O.2    87  GLY87      -0.2863
    154  N         19.1580   -6.2740   15.4650 N.3    92  LYS92      -0.1245
    155  CA        18.4200   -6.0030   14.2320 C.3    92  LYS92       0.1561
    156  C         18.7390   -4.6180   13.6390 C.2    92  LYS92       0.2260
    157  O         18.2510   -4.2810   12.5620 O.2    92  LYS92      -0.2867
    158  CB        16.9090   -6.2220   14.4240 C.3    92  LYS92       0.0271
    159  CG        16.5120   -7.7080   14.4750 C.3    92  LYS92       0.0035
    160  CD        15.0340   -7.9350   14.7950 C.3    92  LYS92       0.0206
    161  CE        14.7540   -7.7450   16.2860 C.3    92  LYS92       0.1093
    162  NZ        13.3070   -7.8370   16.6130 N.3    92  LYS92      -0.1314
    163  N         -0.2760   -7.2650   26.8490 N.3   129  ASN129     -0.1240
    164  CA         0.2110   -6.3350   25.8260 C.3   129  ASN129      0.1653
    165  C          0.1640   -4.8850   26.2870 C.2   129  ASN129      0.2266
    166  O         -0.6730   -4.5070   27.1060 O.2   129  ASN129     -0.2867
    167  CB        -0.6520   -6.4300   24.5470 C.3   129  ASN129      0.1155
    168  CG        -0.6800   -7.8190   23.9480 C.2   129  ASN129      0.2627
    169  OD1       -1.2900   -8.7330   24.5030 O.2   129  ASN129     -0.2716
    170  ND2       -0.0270   -7.9870   22.7990 N.am  129  ASN129     -0.0877
    171  N         -1.5650   -9.8260    6.4040 N.3   161  LEU161     -0.1245
    172  CA        -1.2970  -10.9340    7.2880 C.3   161  LEU161      0.1561
    173  C         -2.5780  -11.5000    7.8210 C.2   161  LEU161      0.2260
    174  O         -3.5210  -10.7790    8.1420 O.2   161  LEU161     -0.2867
    175  CB        -0.3810  -10.5270    8.4510 C.3   161  LEU161      0.0270
    176  CG        -0.1520  -11.5720    9.5630 C.3   161  LEU161      0.0019
    177  CD1        0.7360  -12.7120    9.0660 C.3   161  LEU161      0.0001
    178  CD2        0.4290  -10.9440   10.8170 C.3   161  LEU161      0.0001
    179  N         -3.6240  -14.5180   10.7760 N.3   163  MET163     -0.1245
    180  CA        -3.2400  -15.4780   11.8200 C.3   163  MET163      0.1570
    181  C         -4.5070  -16.1630   12.3690 C.2   163  MET163      0.2261
    182  O         -5.5970  -15.6260   12.2060 O.2   163  MET163     -0.2867
    183  CB        -2.4570  -14.7760   12.9380 C.3   163  MET163      0.0387
    184  CG        -1.0590  -14.3070   12.5280 C.3   163  MET163      0.0595
    185  SD        -0.1150  -13.5930   13.8900 S.3   163  MET163     -0.1393
    186  CE         1.5690  -13.6710   13.2780 C.3   163  MET163      0.0692
    187  N          0.9010  -14.6540    4.5180 N.3   168  TYR168     -0.1241
    188  CA         1.0320  -13.3350    3.9240 C.3   168  TYR168      0.1605
    189  C          0.2480  -13.3180    2.6320 C.2   168  TYR168      0.2264
    190  O          0.0650  -14.3700    1.9930 O.2   168  TYR168     -0.2867
    191  CB         2.4900  -13.0030    3.6380 C.3   168  TYR168      0.0534
    192  CG         3.3510  -12.6880    4.8510 C.ar  168  TYR168     -0.0201
    193  CD1        4.4310  -13.5080    5.1780 C.ar  168  TYR168     -0.0009
    194  CD2        3.1080  -11.5580    5.6410 C.ar  168  TYR168     -0.0009
    195  CE1        5.2500  -13.2280    6.2580 C.ar  168  TYR168      0.0417
    196  CE2        3.9320  -11.2530    6.7390 C.ar  168  TYR168      0.0417
    197  CZ         5.0060  -12.0990    7.0390 C.ar  168  TYR168      0.1957
    198  OH         5.8310  -11.8490    8.1140 O.3   168  TYR168     -0.2866
@<TRIPOS>BOND
     1   190   189    2
     2   189   188    1
     3   191   188    1
     4   191   192    1
     5   188   187    1
     6   192   193   ar
     7   192   194   ar
     8   193   195   ar
     9   194   196   ar
    10   195   197   ar
    11   171   172    1
    12   196   197   ar
    13    13    15    1
    14    13    14    1
    15    13    10    1
    16    12    11    2
    17   197   198    1
    18   172   173    1
    19   172   175    1
    20     4     3    2
    21     9    10    1
    22    10    11    1
    23   173   174    2
    24   115   116    1
    25   115   112    1
    26   111   112    1
    27     3     2    1
    28   175   176    1
    29   116   118   ar
    30   116   117   ar
    31     1     2    1
    32   112   113    1
    33   177   176    1
    34     2     5    1
    35   176   178    1
    36   113   114    2
    37     5     6    1
    38   179   180    1
    39   124   123    1
    40   135   134    1
    41   119   120    1
    42     6     7    1
    43    40    39    2
    44   123   120    1
    45   180   181    1
    46   180   183    1
    47    36    33    1
    48     8     7    1
    49   182   181    2
    50   120   121    1
    51   134   136    1
    52   134   133    1
    53    46    45    1
    54    46    47    1
    55   184   183    1
    56   184   185    1
    57   157   156    2
    58    48    47    2
    59    33    34    1
    60    33    32    1
    61    39    45   am
    62    39    38    1
    63   125   121   am
    64   125   126    1
    65    37    34   am
    66    37    38    1
    67   121   122    2
    68    47    49   am
    69   186   185    1
    70   133   130    1
    71    34    35    2
    72    32    26   am
    73   156   155    1
    74    38    41    1
    75   126   127    1
    76    27    26    2
    77   129   127   am
    78   129   130    1
    79    26    25    1
    80   155   158    1
    81   155   154    1
    82    41    42    1
    83   127   128    2
    84   158   159    1
    85   159   160    1
    86   130   131    1
    87    49    50    1
    88    44    42    1
    89   143   141    1
    90   160   161    1
    91    42    43    1
    92    24    25    1
    93    25    28    1
    94    51    50    1
    95    51    52    2
    96    50    53    1
    97   137   131   am
    98   137   138    1
    99   131   132    2
   100   141   138    1
   101   141   142    1
   102    19    18    2
   103    18    17    1
   104    55    57   ar
   105    55    54   ar
   106   161   162    1
   107   138   139    1
   108    28    29    1
   109    57    58   ar
   110    53    54    1
   111   140   139    2
   112    17    16    1
   113    17    20    1
   114    54    56   ar
   115    29    30    1
   116   139   144   am
   117    31    30    1
   118    58    56   ar
   119    58    60   ar
   120    22    21    2
   121    56    59   ar
   122    20    21    1
   123    21    23   am
   124   144   145    1
   125    60    62   ar
   126    63    64    1
   127    66    65    2
   128   147   146    2
   129   145   146    1
   130   145   148    1
   131   109   108    1
   132   146   150   am
   133    59    61   ar
   134   150   151    1
   135   151   152    1
   136   110   108    1
   137    64    65    1
   138    65    67   am
   139    62    61   ar
   140    73    71    1
   141   108   105    1
   142    91    90   ar
   143    91    89   ar
   144   148   149    1
   145    90    88   ar
   146    89    87   ar
   147   152   153    2
   148    67    68    1
   149    68    71    1
   150    68    69    1
   151    71    72    1
   152    88    87   ar
   153    87    86    1
   154   105   104    1
   155   105   106    1
   156    86    83    1
   157   104    94   am
   158    99   101   ar
   159    99    97   ar
   160    74    69   am
   161    74    75    1
   162   101   102   ar
   163   170   168   am
   164    69    70    2
   165   106   107    2
   166    96    97    1
   167    96    93    1
   168    78    75    1
   169    78    79    1
   170    97    98   ar
   171    92    93    1
   172    92    84   am
   173    94    93    1
   174    94    95    2
   175    83    84    1
   176    83    82    1
   177    75    76    1
   178   168   169    2
   179   168   167    1
   180   102   103    1
   181   102   100   ar
   182    81    79   am
   183    84    85    2
   184    79    80    2
   185    77    76    2
   186   167   164    1
   187    98   100   ar
   188   164   165    1
   189   164   163    1
   190   165   166    2
