@<TRIPOS>MOLECULE
tmp/3bnuA01.pdb
 190 190 0 0 0
SMALL
GASTEIGER

@<TRIPOS>ATOM
      1  N         43.5720    6.0780  109.3200 N.3    58  TRP58      -0.1241
      2  CA        43.1010    7.0730  108.3570 C.3    58  TRP58       0.1605
      3  C         43.1400    8.5250  108.7830 C.2    58  TRP58       0.2264
      4  O         43.0210    8.8480  109.9610 O.2    58  TRP58      -0.2867
      5  CB        41.6440    6.7940  107.9550 C.3    58  TRP58       0.0550
      6  CG        41.4160    5.5590  107.1580 C.ar   58  TRP58       0.0003
      7  CD1       41.6180    5.3930  105.8180 C.ar   58  TRP58       0.0946
      8  CD2       40.9700    4.2960  107.6600 C.ar   58  TRP58       0.0152
      9  NE1       41.3300    4.0980  105.4540 N.ar   58  TRP58      -0.2442
     10  CE2       40.9300    3.4040  106.5660 C.ar   58  TRP58       0.0810
     11  CE3       40.6000    3.8320  108.9300 C.ar   58  TRP58       0.0012
     12  CZ2       40.5360    2.0700  106.7020 C.ar   58  TRP58       0.0191
     13  CZ3       40.2070    2.5030  109.0670 C.ar   58  TRP58       0.0001
     14  CH2       40.1800    1.6390  107.9570 C.ar   58  TRP58       0.0015
     15  N         41.0040   11.5650  108.6370 N.3    60  HIS60      -0.1226
     16  CA        39.5910   11.8480  108.4230 C.3    60  HIS60       0.1752
     17  C         39.3730   13.3180  108.0590 C.2    60  HIS60       0.2596
     18  O         40.2590   14.1440  108.2490 O.2    60  HIS60      -0.2718
     19  CB        38.7870   11.5120  109.6810 C.3    60  HIS60       0.0759
     20  CG        38.7050   10.0460  109.9670 C.ar   60  HIS60       0.0818
     21  ND1       38.2100    9.1400  109.0550 N.ar   60  HIS60      -0.2268
     22  CD2       39.0640    9.3250  111.0560 C.ar   60  HIS60       0.1154
     23  CE1       38.2690    7.9240  109.5680 C.ar   60  HIS60       0.1986
     24  NE2       38.7840    8.0090  110.7800 N.ar   60  HIS60      -0.2212
     25  N         38.1930   13.6280  107.5290 N.am   61  ASP61      -0.1974
     26  CA        37.8400   14.9910  107.1610 C.3    61  ASP61       0.1709
     27  C         38.9540   15.6860  106.3730 C.2    61  ASP61       0.2293
     28  O         39.3790   16.7810  106.7360 O.2    61  ASP61      -0.2864
     29  CB        37.5310   15.7760  108.4380 C.3    61  ASP61       0.1436
     30  CG        36.5230   15.0650  109.3320 C.2    61  ASP61       0.3671
     31  OD1       35.4630   14.6600  108.8280 O.co2  61  ASP61      -0.2456
     32  OD2       36.7790   14.9150  110.5410 O.co2  61  ASP61      -0.2456
     33  N         31.3970    0.3030  113.7640 N.3   166  LEU166     -0.1231
     34  CA        32.8350    0.3280  113.5250 C.3   166  LEU166      0.1693
     35  C         33.3960    1.7450  113.4660 C.2   166  LEU166      0.2592
     36  O         34.6080    1.9330  113.3520 O.2   166  LEU166     -0.2718
     37  CB        33.1920   -0.4510  112.2530 C.3   166  LEU166      0.0284
     38  CG        32.9580   -1.9670  112.3220 C.3   166  LEU166      0.0019
     39  CD1       33.5970   -2.5240  113.5960 C.3   166  LEU166      0.0001
     40  CD2       31.4670   -2.2670  112.3220 C.3   166  LEU166      0.0001
     41  N         32.5190    2.7420  113.5320 N.am  167  TRP167     -0.1962
     42  CA        32.9630    4.1310  113.5540 C.3   167  TRP167      0.1771
     43  C         33.0960    4.4840  115.0340 C.2   167  TRP167      0.2619
     44  O         33.9980    5.2080  115.4280 O.2   167  TRP167     -0.2715
     45  CB        31.9290    5.0850  112.9240 C.3   167  TRP167      0.0590
     46  CG        32.0120    5.2640  111.4260 C.ar  167  TRP167      0.0006
     47  CD1       31.1780    4.7260  110.4850 C.ar  167  TRP167      0.0946
     48  CD2       32.9850    6.0360  110.7010 C.ar  167  TRP167      0.0152
     49  NE1       31.5700    5.1120  109.2240 N.ar  167  TRP167     -0.2442
     50  CE2       32.6760    5.9150  109.3260 C.ar  167  TRP167      0.0810
     51  CE3       34.0910    6.8150  111.0810 C.ar  167  TRP167      0.0012
     52  CZ2       33.4350    6.5450  108.3240 C.ar  167  TRP167      0.0191
     53  CZ3       34.8450    7.4380  110.0880 C.ar  167  TRP167      0.0001
     54  CH2       34.5120    7.2980  108.7240 C.ar  167  TRP167      0.0015
     55  N         32.1950    3.9500  115.8540 N.am  168  HIS168     -0.1973
     56  CA        32.1920    4.2420  117.2870 C.3   168  HIS168      0.1656
     57  C         32.8910    3.2130  118.1720 C.2   168  HIS168      0.2291
     58  O         33.4390    3.5580  119.2120 O.2   168  HIS168     -0.2864
     59  CB        30.7490    4.4230  117.7520 C.3   168  HIS168      0.0771
     60  CG        30.0570    5.5870  117.1110 C.ar  168  HIS168      0.0820
     61  ND1       30.1940    6.8790  117.5720 N.ar  168  HIS168     -0.2267
     62  CD2       29.2360    5.6540  116.0350 C.ar  168  HIS168      0.1154
     63  CE1       29.4820    7.6900  116.8120 C.ar  168  HIS168      0.1986
     64  NE2       28.8910    6.9720  115.8730 N.ar  168  HIS168     -0.2212
     65  N         26.9230   11.3220  112.2730 N.3   182  PHE182     -0.1227
     66  CA        27.7530   12.5070  112.2070 C.3   182  PHE182      0.1736
     67  C         28.1130   12.6850  110.7480 C.2   182  PHE182      0.2596
     68  O         28.0090   11.7440  109.9590 O.2   182  PHE182     -0.2718
     69  CB        29.0280   12.3350  113.0450 C.3   182  PHE182      0.0547
     70  CG        29.8020   11.0700  112.7480 C.ar  182  PHE182     -0.0202
     71  CD1       31.1500   10.9790  113.0860 C.ar  182  PHE182     -0.0042
     72  CD2       29.1870    9.9640  112.1580 C.ar  182  PHE182     -0.0042
     73  CE1       31.8710    9.8130  112.8450 C.ar  182  PHE182     -0.0003
     74  CE2       29.8990    8.7930  111.9120 C.ar  182  PHE182     -0.0003
     75  CZ        31.2430    8.7180  112.2560 C.ar  182  PHE182     -0.0000
     76  N         28.5260   13.8920  110.3900 N.am  183  GLY183     -0.1942
     77  CA        28.8840   14.1510  109.0140 C.3   183  GLY183      0.2014
     78  C         30.3790   14.2680  108.8340 C.2   183  GLY183      0.2638
     79  O         31.0530   14.9870  109.5700 O.2   183  GLY183     -0.2714
     80  N         30.8960   13.5490  107.8480 N.am  184  HIS184     -0.1973
     81  CA        32.3130   13.5730  107.5530 C.3   184  HIS184      0.1656
     82  C         32.5920   14.6820  106.5610 C.2   184  HIS184      0.2291
     83  O         31.9380   14.7860  105.5200 O.2   184  HIS184     -0.2864
     84  CB        32.7420   12.2220  106.9920 C.3   184  HIS184      0.0771
     85  CG        32.5760   11.1030  107.9710 C.ar  184  HIS184      0.0820
     86  ND1       33.3520   10.9920  109.1050 N.ar  184  HIS184     -0.2267
     87  CD2       31.6760   10.0910  108.0280 C.ar  184  HIS184      0.1154
     88  CE1       32.9340    9.9620  109.8200 C.ar  184  HIS184      0.1986
     89  NE2       31.9170    9.3980  109.1900 N.ar  184  HIS184     -0.2212
     90  N         37.2020    0.1710  119.9100 N.3   287  LEU287     -0.1245
     91  CA        37.4730   -0.2650  118.5450 C.3   287  LEU287      0.1561
     92  C         38.7020   -1.1820  118.5580 C.2   287  LEU287      0.2260
     93  O         39.7380   -0.8290  119.1260 O.2   287  LEU287     -0.2867
     94  CB        37.7570    0.9350  117.6420 C.3   287  LEU287      0.0270
     95  CG        37.8690    0.5190  116.1830 C.3   287  LEU287      0.0019
     96  CD1       36.4830    0.1430  115.6750 C.3   287  LEU287      0.0001
     97  CD2       38.4530    1.6420  115.3670 C.3   287  LEU287      0.0001
     98  N         41.2480   -4.2530  116.2780 N.3   289  LYS289     -0.1245
     99  CA        41.7250   -4.6190  114.9450 C.3   289  LYS289      0.1561
    100  C         42.3900   -5.9920  114.8800 C.2   289  LYS289      0.2260
    101  O         43.1370   -6.3820  115.7830 O.2   289  LYS289     -0.2867
    102  CB        42.7440   -3.6020  114.4220 C.3   289  LYS289      0.0271
    103  CG        42.2000   -2.2380  114.0830 C.3   289  LYS289      0.0035
    104  CD        43.2230   -1.4650  113.2700 C.3   289  LYS289      0.0206
    105  CE        42.8180   -0.0030  113.1370 C.3   289  LYS289      0.1093
    106  NZ        43.7440    0.7790  112.2740 N.3   289  LYS289     -0.1314
    107  N         34.0860   -5.0690  109.7520 N.3   347  PHE347     -0.1241
    108  CA        34.6180   -4.2670  108.6610 C.3   347  PHE347      0.1605
    109  C         36.0170   -4.7210  108.2600 C.2   347  PHE347      0.2264
    110  O         36.9170   -4.7880  109.0980 O.2   347  PHE347     -0.2867
    111  CB        34.6350   -2.7980  109.0980 C.3   347  PHE347      0.0534
    112  CG        35.2370   -1.8620  108.0940 C.ar  347  PHE347     -0.0203
    113  CD1       34.7840   -1.8370  106.7830 C.ar  347  PHE347     -0.0042
    114  CD2       36.2400   -0.9790  108.4680 C.ar  347  PHE347     -0.0042
    115  CE1       35.3230   -0.9410  105.8590 C.ar  347  PHE347     -0.0003
    116  CE2       36.7840   -0.0780  107.5490 C.ar  347  PHE347     -0.0003
    117  CZ        36.3230   -0.0610  106.2450 C.ar  347  PHE347     -0.0000
    118  N         38.1990   -4.4400  111.4560 N.3   363  LEU363     -0.1245
    119  CA        37.8440   -3.6560  112.6390 C.3   363  LEU363      0.1561
    120  C         36.7070   -4.3430  113.4070 C.2   363  LEU363      0.2260
    121  O         35.7880   -4.8680  112.7970 O.2   363  LEU363     -0.2867
    122  CB        37.4090   -2.2440  112.2290 C.3   363  LEU363      0.0270
    123  CG        38.5040   -1.1820  112.0630 C.3   363  LEU363      0.0019
    124  CD1       39.6020   -1.6830  111.1450 C.3   363  LEU363      0.0001
    125  CD2       37.8870    0.0870  111.5000 C.3   363  LEU363      0.0001
    126  N         38.9620    5.0420  122.0270 N.3   438  TYR438     -0.1227
    127  CA        38.8250    6.4960  122.0770 C.3   438  TYR438      0.1736
    128  C         37.4060    6.8460  122.5020 C.2   438  TYR438      0.2596
    129  O         36.4790    6.0550  122.3120 O.2   438  TYR438     -0.2718
    130  CB        39.1000    7.1090  120.7040 C.3   438  TYR438      0.0548
    131  CG        38.3460    6.4170  119.5960 C.ar  438  TYR438     -0.0200
    132  CD1       38.9500    5.4090  118.8500 C.ar  438  TYR438     -0.0009
    133  CD2       37.0140    6.7380  119.3170 C.ar  438  TYR438     -0.0009
    134  CE1       38.2550    4.7350  117.8520 C.ar  438  TYR438      0.0417
    135  CE2       36.3130    6.0660  118.3240 C.ar  438  TYR438      0.0417
    136  CZ        36.9440    5.0660  117.5960 C.ar  438  TYR438      0.1957
    137  OH        36.2780    4.4040  116.6010 O.3   438  TYR438     -0.2866
    138  N         37.2440    8.0420  123.0610 N.am  439  SER439     -0.1952
    139  CA        35.9450    8.5200  123.5310 C.3   439  SER439      0.1924
    140  C         34.7640    8.1550  122.6390 C.2   439  SER439      0.2314
    141  O         34.8400    8.2640  121.4130 O.2   439  SER439     -0.2863
    142  CB        35.9840   10.0360  123.7240 C.3   439  SER439      0.2116
    143  OG        36.7340   10.3630  124.8760 O.3   439  SER439     -0.2180
    144  N         36.7030   20.0250  120.3080 N.3   471  MET471     -0.1230
    145  CA        35.4540   19.8780  119.5540 C.3   471  MET471      0.1702
    146  C         35.6820   19.3830  118.1270 C.2   471  MET471      0.2592
    147  O         35.1120   18.3720  117.7110 O.2   471  MET471     -0.2718
    148  CB        34.7220   21.2280  119.5290 C.3   471  MET471      0.0401
    149  CG        33.3780   21.2390  118.8020 C.3   471  MET471      0.0596
    150  SD        32.7310   22.9370  118.5490 S.3   471  MET471     -0.1393
    151  CE        31.7200   23.1750  120.0310 C.3   471  MET471      0.0692
    152  N         36.5100   20.1050  117.3750 N.am  472  ASP472     -0.1960
    153  CA        36.8160   19.7230  115.9970 C.3   472  ASP472      0.1840
    154  C         37.8150   18.5780  115.9820 C.2   472  ASP472      0.2623
    155  O         38.9180   18.7100  116.5120 O.2   472  ASP472     -0.2715
    156  CB        37.4080   20.9050  115.2200 C.3   472  ASP472      0.1450
    157  CG        36.3720   21.9570  114.8710 C.2   472  ASP472      0.3671
    158  OD1       36.7470   22.9710  114.2320 O.co2 472  ASP472     -0.2456
    159  OD2       35.1860   21.7680  115.2350 O.co2 472  ASP472     -0.2456
    160  N         37.4330   17.4630  115.3670 N.am  473  GLY473     -0.1940
    161  CA        38.3190   16.3130  115.3030 C.3   473  GLY473      0.2014
    162  C         38.3050   15.4940  116.5780 C.2   473  GLY473      0.2639
    163  O         39.1900   14.6720  116.8010 O.2   473  GLY473     -0.2714
    164  N         37.2980   15.7290  117.4170 N.am  474  ALA474     -0.1963
    165  CA        37.1440   15.0170  118.6790 C.3   474  ALA474      0.1728
    166  C         37.3380   13.5280  118.4590 C.2   474  ALA474      0.2617
    167  O         36.8120   12.9570  117.5040 O.2   474  ALA474     -0.2715
    168  CB        35.7650   15.2790  119.2550 C.3   474  ALA474      0.0334
    169  N         38.1010   12.9010  119.3450 N.am  475  GLY475     -0.1940
    170  CA        38.3550   11.4820  119.2130 C.3   475  GLY475      0.2014
    171  C         39.2280   11.1140  118.0240 C.2   475  GLY475      0.2639
    172  O         39.5210    9.9360  117.8280 O.2   475  GLY475     -0.2714
    173  N         39.6540   12.1050  117.2410 N.am  476  CYS476     -0.1967
    174  CA        40.4870   11.8480  116.0650 C.3   476  CYS476      0.1712
    175  C         41.9630   12.2440  116.2570 C.2   476  CYS476      0.2296
    176  O         42.3090   13.0730  117.1090 O.2   476  CYS476     -0.2864
    177  CB        39.9110   12.5760  114.8280 C.3   476  CYS476      0.0983
    178  SG        38.2800   11.9830  114.1680 S.3   476  CYS476     -0.0798
    179  N         43.8800   14.0120  114.3160 N.3   478  TYR478     -0.1241
    180  CA        44.1060   15.4280  114.0710 C.3   478  TYR478      0.1605
    181  C         43.5500   16.2740  115.2080 C.2   478  TYR478      0.2264
    182  O         44.0510   17.3640  115.4890 O.2   478  TYR478     -0.2867
    183  CB        43.5420   15.8460  112.7040 C.3   478  TYR478      0.0534
    184  CG        42.0420   16.0380  112.5980 C.ar  478  TYR478     -0.0201
    185  CD1       41.4460   17.2570  112.9340 C.ar  478  TYR478     -0.0009
    186  CD2       41.2290   15.0300  112.0840 C.ar  478  TYR478     -0.0009
    187  CE1       40.0690   17.4690  112.7450 C.ar  478  TYR478      0.0417
    188  CE2       39.8680   15.2280  111.8940 C.ar  478  TYR478      0.0417
    189  CZ        39.2940   16.4490  112.2190 C.ar  478  TYR478      0.1957
    190  OH        37.9550   16.6490  111.9670 O.3   478  TYR478     -0.2866
@<TRIPOS>BOND
     1     9     7   ar
     2     9    10   ar
     3    83    82    2
     4     7     6   ar
     5   115   117   ar
     6   115   113   ar
     7   117   116   ar
     8    27    28    2
     9    27    26    1
    10    82    81    1
    11    10    12   ar
    12    10     8   ar
    13    12    14   ar
    14   113   112   ar
    15    84    81    1
    16    84    85    1
    17     6     8   ar
    18     6     5    1
    19    26    25    1
    20    26    29    1
    21    25    17   am
    22   116   114   ar
    23    81    80    1
    24     8    11   ar
    25    80    78   am
    26     5     2    1
    27    14    13   ar
    28    85    87   ar
    29    85    86   ar
    30    87    89   ar
    31    17    18    2
    32    17    16    1
    33   112   114   ar
    34   112   111    1
    35   109   108    1
    36   109   110    2
    37    52    54   ar
    38    52    50   ar
    39     2     3    1
    40     2     1    1
    41    16    15    1
    42    16    19    1
    43    29    30    1
    44   108   111    1
    45   108   107    1
    46    54    53   ar
    47     3     4    2
    48    31    30   ar
    49    78    77    1
    50    78    79    2
    51    11    13   ar
    52    77    76    1
    53    21    23   ar
    54    21    20   ar
    55    86    88   ar
    56    89    88   ar
    57    49    50   ar
    58    49    47   ar
    59    50    48   ar
    60    30    32   ar
    61    23    24   ar
    62    19    20    1
    63    68    67    2
    64    20    22   ar
    65    53    51   ar
    66    76    67   am
    67    47    46   ar
    68    48    51   ar
    69    48    46   ar
    70    67    66    1
    71    24    22   ar
    72   124   123    1
    73    46    45    1
    74   118   119    1
    75   125   123    1
    76   188   186   ar
    77   188   189   ar
    78    74    72   ar
    79    74    75   ar
    80   190   189    1
    81   123   122    1
    82   186   184   ar
    83    72    70   ar
    84    66    65    1
    85    66    69    1
    86   189   187   ar
    87   122   119    1
    88    37    38    1
    89    37    34    1
    90    75    73   ar
    91   106   105    1
    92    40    38    1
    93    38    39    1
    94   184   183    1
    95   184   185   ar
    96   119   120    1
    97   183   180    1
    98   187   185   ar
    99    70    69    1
   100    70    71   ar
   101   121   120    2
   102    73    71   ar
   103    45    42    1
   104   105   104    1
   105   104   103    1
   106    36    35    2
   107    35    34    1
   108    35    41   am
   109    34    33    1
   110    41    42    1
   111    42    43    1
   112   180   179    1
   113   180   181    1
   114   103   102    1
   115   178   177    1
   116   158   157   ar
   117   102    99    1
   118   177   174    1
   119   157   156    1
   120   157   159   ar
   121   100    99    1
   122   100   101    2
   123    99    98    1
   124    43    44    2
   125    43    55   am
   126   181   182    2
   127   156   153    1
   128   161   160    1
   129   161   162    1
   130   160   154   am
   131    97    95    1
   132    96    95    1
   133    55    56    1
   134    64    62   ar
   135    64    63   ar
   136   154   153    1
   137   154   155    2
   138   153   152    1
   139    62    60   ar
   140   174   175    1
   141   174   173    1
   142    95    94    1
   143   175   176    2
   144   162   163    2
   145   162   164   am
   146   137   136    1
   147    63    61   ar
   148    60    61   ar
   149    60    59    1
   150   173   171   am
   151    56    59    1
   152    56    57    1
   153   152   146   am
   154   164   165    1
   155   167   166    2
   156   136   134   ar
   157   136   135   ar
   158    94    91    1
   159   147   146    2
   160   172   171    2
   161   134   132   ar
   162   171   170    1
   163   146   145    1
   164    57    58    2
   165   135   133   ar
   166   166   165    1
   167   166   169   am
   168    91    92    1
   169    91    90    1
   170   150   149    1
   171   150   151    1
   172    92    93    2
   173   165   168    1
   174   149   148    1
   175   132   131   ar
   176   170   169    1
   177   133   131   ar
   178   148   145    1
   179   145   144    1
   180   131   130    1
   181   130   127    1
   182   141   140    2
   183   126   127    1
   184   127   128    1
   185   129   128    2
   186   128   138   am
   187   140   139    1
   188   138   139    1
   189   139   142    1
   190   142   143    1
