@<TRIPOS>MOLECULE
tmp/3bnyA00.pdb
 155 148 0 0 0
SMALL
GASTEIGER

@<TRIPOS>ATOM
      1  N         -3.3670  -24.6700   22.7890 N.3    51  VAL51      -0.1245
      2  CA        -2.5240  -25.8740   22.8850 C.3    51  VAL51       0.1561
      3  C         -1.1410  -25.4820   22.3500 C.2    51  VAL51       0.2260
      4  O         -0.1380  -25.6770   23.0170 O.2    51  VAL51      -0.2867
      5  CB        -3.0820  -27.0390   22.0170 C.3    51  VAL51       0.0252
      6  CG1       -2.0580  -28.1650   21.9100 C.3    51  VAL51       0.0019
      7  CG2       -4.3710  -27.5690   22.6290 C.3    51  VAL51       0.0019
      8  N          2.8290  -25.5390   24.2070 N.3    55  TYR55      -0.1241
      9  CA         3.9840  -26.2880   23.7090 C.3    55  TYR55       0.1605
     10  C          5.1870  -25.4280   23.3260 C.2    55  TYR55       0.2264
     11  O          6.3320  -25.8600   23.4760 O.2    55  TYR55      -0.2867
     12  CB         3.5770  -27.1250   22.5040 C.3    55  TYR55       0.0534
     13  CG         2.8960  -28.4230   22.8770 C.ar   55  TYR55      -0.0201
     14  CD1        1.5440  -28.4550   23.2350 C.ar   55  TYR55      -0.0009
     15  CD2        3.6310  -29.6140   22.9480 C.ar   55  TYR55      -0.0009
     16  CE1        0.9320  -29.6520   23.6680 C.ar   55  TYR55       0.0417
     17  CE2        3.0400  -30.8040   23.3800 C.ar   55  TYR55       0.0417
     18  CZ         1.7010  -30.8200   23.7370 C.ar   55  TYR55       0.1957
     19  OH         1.1290  -31.9940   24.1620 O.3    55  TYR55      -0.2866
     20  N         -0.5470  -25.9250   13.2170 N.3    71  LEU71      -0.1245
     21  CA        -1.0910  -27.0190   14.0310 C.3    71  LEU71       0.1561
     22  C         -2.6340  -27.0380   13.9380 C.2    71  LEU71       0.2260
     23  O         -3.2610  -28.1070   13.9520 O.2    71  LEU71      -0.2867
     24  CB        -0.6550  -26.8890   15.5150 C.3    71  LEU71       0.0270
     25  CG         0.8240  -27.0780   15.9030 C.3    71  LEU71       0.0019
     26  CD1        0.9670  -27.3490   17.4190 C.3    71  LEU71       0.0001
     27  CD2        1.4090  -28.2430   15.1060 C.3    71  LEU71       0.0001
     28  N         -3.6250  -28.6560   10.8250 N.3    74  LEU74      -0.1231
     29  CA        -3.2070  -30.0390   10.9330 C.3    74  LEU74       0.1693
     30  C         -4.1660  -30.8400   11.8280 C.2    74  LEU74       0.2592
     31  O         -4.4650  -32.0060   11.5220 O.2    74  LEU74      -0.2718
     32  CB        -1.7730  -30.1150   11.4390 C.3    74  LEU74       0.0284
     33  CG        -0.6970  -29.8390   10.3830 C.3    74  LEU74       0.0019
     34  CD1        0.6690  -29.9300   11.0620 C.3    74  LEU74       0.0001
     35  CD2       -0.7930  -30.8320    9.2080 C.3    74  LEU74       0.0001
     36  N         -4.6610  -30.2040   12.8940 N.am   75  PHE75      -0.1976
     37  CA        -5.6250  -30.8190   13.8130 C.3    75  PHE75       0.1639
     38  C         -6.9550  -31.0610   13.0750 C.2    75  PHE75       0.2290
     39  O         -7.5790  -32.1310   13.1780 O.2    75  PHE75      -0.2864
     40  CB        -5.8770  -29.8990   15.0230 C.3    75  PHE75       0.0560
     41  CG        -4.9920  -30.1950   16.2010 C.ar   75  PHE75      -0.0200
     42  CD1       -4.0490  -29.2720   16.6330 C.ar   75  PHE75      -0.0042
     43  CD2       -5.1060  -31.4000   16.8850 C.ar   75  PHE75      -0.0042
     44  CE1       -3.2360  -29.5410   17.7230 C.ar   75  PHE75      -0.0003
     45  CE2       -4.2910  -31.6820   17.9860 C.ar   75  PHE75      -0.0003
     46  CZ        -3.3560  -30.7570   18.4050 C.ar   75  PHE75      -0.0000
     47  N         -6.5490  -33.8040   10.7060 N.3    78  ASP78      -0.1239
     48  CA        -6.4900  -35.0460   11.4950 C.3    78  ASP78       0.1674
     49  C         -7.8920  -35.6270   11.7370 C.2    78  ASP78       0.2266
     50  O         -8.1420  -36.8080   11.4970 O.2    78  ASP78      -0.2867
     51  CB        -5.8340  -34.7970   12.8520 C.3    78  ASP78       0.1410
     52  CG        -5.5090  -36.0820   13.5650 C.2    78  ASP78       0.3668
     53  OD1       -4.6690  -36.8390   13.0340 O.co2  78  ASP78      -0.2456
     54  OD2       -6.0970  -36.3360   14.6290 O.co2  78  ASP78      -0.2456
     55  N          5.1220  -35.9730    8.5260 N.3   141  PHE141     -0.1241
     56  CA         4.0180  -36.0950    9.4430 C.3   141  PHE141      0.1605
     57  C          2.7060  -36.3080    8.7120 C.2   141  PHE141      0.2264
     58  O          1.9050  -37.1680    9.0950 O.2   141  PHE141     -0.2867
     59  CB         3.8980  -34.8300   10.2840 C.3   141  PHE141      0.0534
     60  CG         2.7310  -34.8490   11.1920 C.ar  141  PHE141     -0.0203
     61  CD1        2.7810  -35.5520   12.3860 C.ar  141  PHE141     -0.0042
     62  CD2        1.5300  -34.2690   10.7990 C.ar  141  PHE141     -0.0042
     63  CE1        1.6700  -35.6910   13.1700 C.ar  141  PHE141     -0.0003
     64  CE2        0.4010  -34.3990   11.5750 C.ar  141  PHE141     -0.0003
     65  CZ         0.4700  -35.1240   12.7820 C.ar  141  PHE141     -0.0000
     66  N          9.3500  -40.8720   16.6400 N.3   166  ASP166     -0.1239
     67  CA         8.0040  -40.3680   16.3700 C.3   166  ASP166      0.1674
     68  C          8.0190  -39.0790   15.5160 C.2   166  ASP166      0.2266
     69  O          8.5850  -38.0660   15.9200 O.2   166  ASP166     -0.2867
     70  CB         7.2580  -40.1060   17.6770 C.3   166  ASP166      0.1410
     71  CG         5.8010  -39.7340   17.4450 C.2   166  ASP166      0.3668
     72  OD1        4.9460  -40.6550   17.4380 O.co2 166  ASP166     -0.2456
     73  OD2        5.5070  -38.5320   17.2530 O.co2 166  ASP166     -0.2456
     74  N          5.5580  -37.1230   14.7890 N.3   168  GLY168     -0.1210
     75  CA         4.7940  -36.0470   15.3980 C.3   168  GLY168      0.1956
     76  C          5.6710  -35.2240   16.3460 C.2   168  GLY168      0.2611
     77  O          5.6160  -33.9900   16.3580 O.2   168  GLY168     -0.2717
     78  N          6.4810  -35.9010   17.1530 N.am  169  LYS169     -0.1979
     79  CA         7.3630  -35.1870   18.0810 C.3   169  LYS169      0.1596
     80  C          8.4480  -34.4480   17.3020 C.2   169  LYS169      0.2287
     81  O          8.8510  -33.3590   17.7040 O.2   169  LYS169     -0.2864
     82  CB         8.0190  -36.1490   19.1000 C.3   169  LYS169      0.0298
     83  CG         7.0330  -36.9820   19.8990 C.3   169  LYS169      0.0038
     84  CD         5.8020  -36.2120   20.3420 C.3   169  LYS169      0.0206
     85  CE         4.9590  -37.0900   21.2090 C.3   169  LYS169      0.1093
     86  NZ         3.5570  -36.6690   21.2260 N.3   169  LYS169     -0.1314
     87  N          8.0620  -33.2290   14.3610 N.3   171  LEU171     -0.1231
     88  CA         7.3930  -32.0390   13.8520 C.3   171  LEU171      0.1693
     89  C          7.4180  -30.9220   14.9070 C.2   171  LEU171      0.2591
     90  O          7.8060  -29.7770   14.6090 O.2   171  LEU171     -0.2718
     91  CB         5.9360  -32.3640   13.4580 C.3   171  LEU171      0.0284
     92  CG         5.0310  -31.1730   13.0880 C.3   171  LEU171      0.0019
     93  CD1        5.6350  -30.4100   11.9130 C.3   171  LEU171      0.0001
     94  CD2        3.6290  -31.6630   12.7480 C.3   171  LEU171      0.0001
     95  N          7.0200  -31.2630   16.1400 N.am  172  LEU172     -0.1980
     96  CA         6.9780  -30.2990   17.2380 C.3   172  LEU172      0.1596
     97  C          8.3050  -29.5940   17.4460 C.2   172  LEU172      0.2287
     98  O          8.3530  -28.3800   17.6770 O.2   172  LEU172     -0.2864
     99  CB         6.5700  -30.9770   18.5650 C.3   172  LEU172      0.0297
    100  CG         5.0940  -31.3700   18.6790 C.3   172  LEU172      0.0022
    101  CD1        4.8250  -31.9530   20.0540 C.3   172  LEU172      0.0001
    102  CD2        4.1950  -30.1340   18.3870 C.3   172  LEU172      0.0001
    103  N          1.8940  -39.0590   27.1230 N.3   207  ASN207     -0.1240
    104  CA         0.6780  -39.1820   26.3070 C.3   207  ASN207      0.1653
    105  C          0.0540  -40.5580   26.6060 C.2   207  ASN207      0.2266
    106  O         -1.1780  -40.6720   26.7830 O.2   207  ASN207     -0.2867
    107  CB         0.9960  -39.1590   24.8120 C.3   207  ASN207      0.1155
    108  CG         1.3420  -37.7750   24.3010 C.2   207  ASN207      0.2627
    109  OD1        1.0190  -36.7670   24.9170 O.2   207  ASN207     -0.2716
    110  ND2        1.9860  -37.7320   23.1650 N.am  207  ASN207     -0.0877
    111  N          3.4080  -30.6310   27.4930 N.3   282  ASN282     -0.1240
    112  CA         2.7560  -31.8450   27.0390 C.3   282  ASN282      0.1653
    113  C          2.0740  -32.5600   28.2130 C.2   282  ASN282      0.2266
    114  O          1.0050  -33.1780   28.0520 O.2   282  ASN282     -0.2867
    115  CB         3.8090  -32.7550   26.4130 C.3   282  ASN282      0.1155
    116  CG         3.2300  -34.0520   25.8630 C.2   282  ASN282      0.2627
    117  OD1        2.5290  -34.0620   24.8570 O.2   282  ASN282     -0.2716
    118  ND2        3.5560  -35.1590   26.5170 N.am  282  ASN282     -0.0877
    119  N         -1.1310  -30.6470   28.9890 N.3   285  TRP285     -0.1241
    120  CA        -2.0300  -30.8900   27.8690 C.3   285  TRP285      0.1605
    121  C         -2.6450  -32.2680   28.0010 C.2   285  TRP285      0.2264
    122  O         -3.8570  -32.4420   27.8720 O.2   285  TRP285     -0.2867
    123  CB        -1.2870  -30.8480   26.5350 C.3   285  TRP285      0.0550
    124  CG        -2.1800  -31.2110   25.3710 C.ar  285  TRP285      0.0003
    125  CD1       -3.0930  -30.3830   24.7300 C.ar  285  TRP285      0.0946
    126  CD2       -2.2850  -32.4870   24.7310 C.ar  285  TRP285      0.0152
    127  NE1       -3.7380  -31.0740   23.7400 N.ar  285  TRP285     -0.2442
    128  CE2       -3.2670  -32.3670   23.7130 C.ar  285  TRP285      0.0810
    129  CE3       -1.6510  -33.7300   24.9210 C.ar  285  TRP285      0.0012
    130  CZ2       -3.6280  -33.4450   22.8900 C.ar  285  TRP285      0.0191
    131  CZ3       -2.0150  -34.8070   24.1050 C.ar  285  TRP285      0.0001
    132  CH2       -2.9960  -34.6560   23.0990 C.ar  285  TRP285      0.0015
    133  N         -9.2290  -34.8110   23.9350 N.3   291  ARG291     -0.1231
    134  CA        -8.8470  -35.8530   22.9950 C.3   291  ARG291      0.1694
    135  C         -8.7650  -37.2200   23.6930 C.2   291  ARG291      0.2592
    136  O         -8.9860  -38.2460   23.0740 O.2   291  ARG291     -0.2718
    137  CB        -7.4890  -35.5360   22.3720 C.3   291  ARG291      0.0321
    138  CG        -7.1290  -36.4110   21.1810 C.3   291  ARG291      0.0489
    139  CD        -5.6550  -36.2790   20.8740 C.3   291  ARG291      0.2205
    140  NE        -5.3030  -36.7140   19.5300 N.pl3 291  ARG291     -0.0865
    141  CZ        -5.6910  -36.0920   18.4260 C.cat 291  ARG291      0.5346
    142  NH1       -6.4560  -35.0020   18.4970 N.pl3 291  ARG291      0.1354
    143  NH2       -5.2970  -36.5380   17.2540 N.pl3 291  ARG291      0.1354
    144  N         -8.4550  -37.2170   24.9840 N.am  292  TYR292     -0.1976
    145  CA        -8.3010  -38.4610   25.7310 C.3   292  TYR292      0.1639
    146  C         -9.4800  -38.7740   26.6450 C.2   292  TYR292      0.2290
    147  O         -9.4830  -39.7980   27.3420 O.2   292  TYR292     -0.2864
    148  CB        -7.0250  -38.3920   26.5750 C.3   292  TYR292      0.0560
    149  CG        -5.7730  -38.1680   25.7680 C.ar  292  TYR292     -0.0198
    150  CD1       -5.6670  -38.6410   24.4610 C.ar  292  TYR292     -0.0009
    151  CD2       -4.6510  -37.5850   26.3500 C.ar  292  TYR292     -0.0009
    152  CE1       -4.4470  -38.5480   23.7540 C.ar  292  TYR292      0.0417
    153  CE2       -3.4360  -37.4910   25.6670 C.ar  292  TYR292      0.0417
    154  CZ        -3.3330  -37.9840   24.3730 C.ar  292  TYR292      0.1957
    155  OH        -2.0830  -37.9960   23.7480 O.3   292  TYR292     -0.2866
@<TRIPOS>BOND
     1    55    56    1
     2    57    58    2
     3    57    56    1
     4    35    33    1
     5    56    59    1
     6    59    60    1
     7    33    34    1
     8    33    32    1
     9    47    48    1
    10    62    60   ar
    11    62    64   ar
    12    28    29    1
    13    29    32    1
    14    29    30    1
    15    60    61   ar
    16    48    49    1
    17    48    51    1
    18    50    49    2
    19    31    30    2
    20    64    65   ar
    21    30    36   am
    22    93    92    1
    23    61    63   ar
    24    94    92    1
    25    65    63   ar
    26    51    52    1
    27    36    37    1
    28    53    52   ar
    29    38    39    2
    30    38    37    1
    31    92    91    1
    32    20    21    1
    33    91    88    1
    34    52    54   ar
    35    37    40    1
    36    88    87    1
    37    88    89    1
    38    22    23    2
    39    22    21    1
    40    21    24    1
    41    90    89    2
    42    74    75    1
    43    89    95   am
    44    40    41    1
    45    27    25    1
    46    75    76    1
    47    24    25    1
    48    68    69    2
    49    68    67    1
    50    25    26    1
    51    95    96    1
    52    41    42   ar
    53    41    43   ar
    54    76    77    2
    55    76    78   am
    56    67    66    1
    57    67    70    1
    58    42    44   ar
    59    43    45   ar
    60    78    79    1
    61    96    97    1
    62    96    99    1
    63    73    71   ar
    64   143   141    1
    65    80    81    2
    66    80    79    1
    67    72    71   ar
    68    71    70    1
    69    97    98    2
    70    44    46   ar
    71    45    46   ar
    72    79    82    1
    73   102   100    1
    74   141   142    1
    75   141   140    2
    76    99   100    1
    77   100   101    1
    78    82    83    1
    79   140   139    1
    80    83    84    1
    81    84    85    1
    82   139   138    1
    83   138   137    1
    84    85    86    1
    85     6     5    1
    86     5     7    1
    87     5     2    1
    88     3     2    1
    89     3     4    2
    90   137   134    1
    91    12    13    1
    92    12     9    1
    93     1     2    1
    94    13    15   ar
    95    13    14   ar
    96   130   132   ar
    97   130   128   ar
    98    15    17   ar
    99   134   135    1
   100   134   133    1
   101   136   135    2
   102   132   131   ar
   103   110   108   am
   104    14    16   ar
   105    10    11    2
   106    10     9    1
   107    17    18   ar
   108    16    18   ar
   109   135   144   am
   110     9     8    1
   111   128   127   ar
   112   128   126   ar
   113    18    19    1
   114   127   125   ar
   115   155   154    1
   116   152   154   ar
   117   152   150   ar
   118   131   129   ar
   119   108   107    1
   120   108   109    2
   121   154   153   ar
   122   150   149   ar
   123   125   124   ar
   124   126   129   ar
   125   126   124   ar
   126   107   104    1
   127   117   116    2
   128   144   145    1
   129   124   123    1
   130   153   151   ar
   131   145   148    1
   132   145   146    1
   133   149   151   ar
   134   149   148    1
   135   116   115    1
   136   116   118   am
   137   104   105    1
   138   104   103    1
   139   115   112    1
   140   123   120    1
   141   105   106    2
   142   146   147    2
   143   112   111    1
   144   112   113    1
   145   120   121    1
   146   120   119    1
   147   122   121    2
   148   114   113    2
