@<TRIPOS>MOLECULE
tmp/3bnyC00.pdb
 161 153 0 0 0
SMALL
GASTEIGER

@<TRIPOS>ATOM
      1  N         30.7910  -54.4980   -9.1580 N.3    51  VAL51      -0.1245
      2  CA        29.8190  -54.6890   -8.0880 C.3    51  VAL51       0.1561
      3  C         28.6160  -53.8260   -8.4540 C.2    51  VAL51       0.2260
      4  O         27.4610  -54.2660   -8.4050 O.2    51  VAL51      -0.2867
      5  CB        30.3870  -54.1830   -6.6970 C.3    51  VAL51       0.0252
      6  CG1       29.2690  -54.1390   -5.6450 C.3    51  VAL51       0.0019
      7  CG2       31.5120  -55.0840   -6.2400 C.3    51  VAL51       0.0019
      8  N         24.4460  -54.7960   -9.1810 N.3    55  TYR55      -0.1241
      9  CA        23.2870  -54.2670   -8.4780 C.3    55  TYR55       0.1605
     10  C         22.3220  -53.4690   -9.3560 C.2    55  TYR55       0.2264
     11  O         21.1230  -53.5050   -9.1140 O.2    55  TYR55      -0.2867
     12  CB        23.7110  -53.3700   -7.3010 C.3    55  TYR55       0.0534
     13  CG        24.1820  -54.1670   -6.1140 C.ar   55  TYR55      -0.0201
     14  CD1       25.4470  -54.7600   -6.1040 C.ar   55  TYR55      -0.0009
     15  CD2       23.3420  -54.3910   -5.0310 C.ar   55  TYR55      -0.0009
     16  CE1       25.8570  -55.5720   -5.0340 C.ar   55  TYR55       0.0417
     17  CE2       23.7440  -55.1890   -3.9530 C.ar   55  TYR55       0.0417
     18  CZ        24.9970  -55.7750   -3.9660 C.ar   55  TYR55       0.1957
     19  OH        25.3910  -56.5620   -2.9160 O.3    55  TYR55      -0.2866
     20  N         29.8880  -45.1720   -5.9400 N.3    71  LEU71      -0.1245
     21  CA        30.1330  -46.2850   -5.0430 C.3    71  LEU71       0.1561
     22  C         31.6230  -46.5580   -4.8980 C.2    71  LEU71       0.2260
     23  O         32.0780  -46.9580   -3.8260 O.2    71  LEU71      -0.2867
     24  CB        29.3900  -47.5470   -5.4880 C.3    71  LEU71       0.0270
     25  CG        27.8590  -47.4750   -5.4000 C.3    71  LEU71       0.0019
     26  CD1       27.3000  -48.8550   -5.6420 C.3    71  LEU71       0.0001
     27  CD2       27.4090  -46.9770   -4.0290 C.3    71  LEU71       0.0001
     28  N         32.8530  -44.2420   -2.3220 N.3    74  LEU74      -0.1231
     29  CA        32.3310  -44.6050   -1.0150 C.3    74  LEU74       0.1693
     30  C         32.9940  -45.8830   -0.4780 C.2    74  LEU74       0.2592
     31  O         33.2090  -46.0070    0.7300 O.2    74  LEU74      -0.2718
     32  CB        30.8010  -44.7390   -1.0580 C.3    74  LEU74       0.0284
     33  CG        30.0880  -43.3980   -1.2870 C.3    74  LEU74       0.0019
     34  CD1       28.5930  -43.6410   -1.3810 C.3    74  LEU74       0.0001
     35  CD2       30.3910  -42.4300   -0.1380 C.3    74  LEU74       0.0001
     36  N         33.3140  -46.8400   -1.3570 N.am   75  PHE75      -0.1976
     37  CA        34.0090  -48.0480   -0.9060 C.3    75  PHE75       0.1639
     38  C         35.4290  -47.7050   -0.4110 C.2    75  PHE75       0.2290
     39  O         35.8730  -48.2150    0.6170 O.2    75  PHE75      -0.2864
     40  CB        34.1360  -49.0890   -2.0260 C.3    75  PHE75       0.0560
     41  CG        33.0100  -50.1020   -2.0480 C.ar   75  PHE75      -0.0200
     42  CD1       32.0730  -50.1000   -3.0850 C.ar   75  PHE75      -0.0042
     43  CD2       32.8810  -51.0440   -1.0340 C.ar   75  PHE75      -0.0042
     44  CE1       31.0210  -51.0300   -3.1090 C.ar   75  PHE75      -0.0003
     45  CE2       31.8340  -51.9740   -1.0490 C.ar   75  PHE75      -0.0003
     46  CZ        30.9010  -51.9570   -2.1040 C.ar   75  PHE75      -0.0000
     47  N         35.1470  -45.8790    2.8420 N.3    78  ASP78      -0.1239
     48  CA        34.7680  -46.7970    3.9010 C.3    78  ASP78       0.1674
     49  C         35.9840  -47.5830    4.3940 C.2    78  ASP78       0.2266
     50  O         36.0650  -47.9290    5.5770 O.2    78  ASP78      -0.2867
     51  CB        33.6920  -47.7580    3.4230 C.3    78  ASP78       0.1410
     52  CG        32.8810  -48.3100    4.5610 C.2    78  ASP78       0.3668
     53  OD1       32.0000  -47.5860    5.0760 O.co2  78  ASP78      -0.2456
     54  OD2       33.1300  -49.4590    4.9510 O.co2  78  ASP78      -0.2456
     55  N         23.8520  -41.7550    4.4980 N.3   141  PHE141     -0.1241
     56  CA        24.7570  -42.9030    4.5510 C.3   141  PHE141      0.1605
     57  C         26.1560  -42.5240    5.0620 C.2   141  PHE141      0.2264
     58  O         26.7220  -43.2440    5.8910 O.2   141  PHE141     -0.2867
     59  CB        24.9220  -43.5360    3.1670 C.3   141  PHE141      0.0534
     60  CG        25.9520  -44.6440    3.1280 C.ar  141  PHE141     -0.0203
     61  CD1       25.6290  -45.9310    3.5590 C.ar  141  PHE141     -0.0042
     62  CD2       27.2380  -44.3980    2.6650 C.ar  141  PHE141     -0.0042
     63  CE1       26.5910  -46.9550    3.5190 C.ar  141  PHE141     -0.0003
     64  CE2       28.1900  -45.3990    2.6220 C.ar  141  PHE141     -0.0003
     65  CZ        27.8710  -46.6830    3.0470 C.ar  141  PHE141     -0.0000
     66  N         17.6280  -49.9390    6.9070 N.3   166  ASP166     -0.1239
     67  CA        19.0600  -49.7910    6.6500 C.3   166  ASP166      0.1674
     68  C         19.3240  -48.6410    5.6680 C.2   166  ASP166      0.2266
     69  O         18.7490  -48.5820    4.5900 O.2   166  ASP166     -0.2867
     70  CB        19.6160  -51.0830    6.0600 C.3   166  ASP166      0.1410
     71  CG        21.1200  -51.0770    6.0060 C.2   166  ASP166      0.3668
     72  OD1       21.7370  -51.3290    7.0620 O.co2 166  ASP166     -0.2456
     73  OD2       21.6900  -50.8230    4.9300 O.co2 166  ASP166     -0.2456
     74  N         22.0940  -48.0630    4.1370 N.3   168  GLY168     -0.1210
     75  CA        22.9090  -48.5410    3.0300 C.3   168  GLY168      0.1956
     76  C         21.9590  -48.9870    1.9170 C.2   168  GLY168      0.2611
     77  O         22.1590  -48.6260    0.7700 O.2   168  GLY168     -0.2717
     78  N         20.9500  -49.7760    2.2500 N.am  169  LYS169     -0.1979
     79  CA        20.0130  -50.2240    1.2280 C.3   169  LYS169      0.1596
     80  C         19.1610  -49.0570    0.6950 C.2   169  LYS169      0.2287
     81  O         18.7370  -49.0660   -0.4680 O.2   169  LYS169     -0.2864
     82  CB        19.1410  -51.3710    1.7930 C.3   169  LYS169      0.0298
     83  CG        19.9480  -52.4720    2.4790 C.3   169  LYS169      0.0038
     84  CD        21.1020  -52.9480    1.6210 C.3   169  LYS169      0.0206
     85  CE        21.8120  -54.1070    2.2800 C.3   169  LYS169      0.1093
     86  NZ        22.4810  -53.7140    3.5490 N.3   169  LYS169     -0.1314
     87  N         20.2830  -46.0740    0.3030 N.3   171  LEU171     -0.1231
     88  CA        21.1700  -45.4630   -0.6550 C.3   171  LEU171      0.1693
     89  C         21.0890  -46.1700   -2.0130 C.2   171  LEU171      0.2591
     90  O         20.9670  -45.5310   -3.0720 O.2   171  LEU171     -0.2718
     91  CB        22.6170  -45.4630   -0.1420 C.3   171  LEU171      0.0284
     92  CG        23.6740  -45.0020   -1.1560 C.3   171  LEU171      0.0019
     93  CD1       23.3190  -43.6430   -1.7410 C.3   171  LEU171      0.0001
     94  CD2       25.0360  -44.9490   -0.5020 C.3   171  LEU171      0.0001
     95  N         21.1650  -47.5070   -1.9730 N.am  172  LEU172     -0.1980
     96  CA        21.1260  -48.3060   -3.2040 C.3   172  LEU172      0.1596
     97  C         19.8410  -48.1040   -4.0010 C.2   172  LEU172      0.2287
     98  O         19.8900  -47.9270   -5.2210 O.2   172  LEU172     -0.2864
     99  CB        21.2920  -49.8130   -2.8780 C.3   172  LEU172      0.0297
    100  CG        22.6550  -50.3020   -2.4080 C.3   172  LEU172      0.0022
    101  CD1       22.6470  -51.8030   -2.2460 C.3   172  LEU172      0.0001
    102  CD2       23.7420  -49.8600   -3.3650 C.3   172  LEU172      0.0001
    103  N         23.2510  -60.7390    3.1810 N.3   207  ASN207     -0.1240
    104  CA        24.6070  -60.3360    3.5580 C.3   207  ASN207      0.1653
    105  C         24.9950  -61.0830    4.8580 C.2   207  ASN207      0.2266
    106  O         26.0870  -61.6350    4.9600 O.2   207  ASN207     -0.2867
    107  CB        24.6660  -58.8340    3.8420 C.3   207  ASN207      0.1155
    108  CG        24.4270  -57.9680    2.6100 C.2   207  ASN207      0.2627
    109  OD1       24.5240  -58.4680    1.4730 O.2   207  ASN207     -0.2716
    110  ND2       24.0980  -56.6910    2.8110 N.am  207  ASN207     -0.0877
    111  N         28.3900  -63.2010    5.5550 N.3   211  SER211     -0.1217
    112  CA        29.4280  -62.4560    6.2740 C.3   211  SER211      0.1889
    113  C         29.6770  -62.9860    7.6920 C.2   211  SER211      0.2288
    114  O         30.5980  -62.5160    8.4000 O.2   211  SER211     -0.2866
    115  CB        29.0120  -60.9830    6.3710 C.3   211  SER211      0.2089
    116  OG        27.9140  -60.8720    7.2580 O.3   211  SER211     -0.2183
    117  N         22.6710  -59.0240   -5.2390 N.3   281  ASN281     -0.1240
    118  CA        23.2380  -58.9660   -3.8780 C.3   281  ASN281      0.1653
    119  C         23.6030  -60.3580   -3.4050 C.2   281  ASN281      0.2266
    120  O         24.5970  -60.5550   -2.6950 O.2   281  ASN281     -0.2867
    121  CB        22.2070  -58.3390   -2.9150 C.3   281  ASN281      0.1155
    122  CG        22.7170  -58.2560   -1.4560 C.2   281  ASN281      0.2627
    123  OD1       22.2830  -59.0140   -0.5780 O.2   281  ASN281     -0.2716
    124  ND2       23.6230  -57.3290   -1.2130 N.am  281  ASN281     -0.0877
    125  N         26.6790  -61.4210   -5.2960 N.3   284  TRP284     -0.1241
    126  CA        27.7960  -60.6560   -4.7580 C.3   284  TRP284      0.1605
    127  C         28.2270  -61.2140   -3.3900 C.2   284  TRP284      0.2264
    128  O         29.4340  -61.4500   -3.1400 O.2   284  TRP284     -0.2867
    129  CB        27.4060  -59.1780   -4.5780 C.3   284  TRP284      0.0550
    130  CG        28.4830  -58.3490   -3.9050 C.ar  284  TRP284      0.0003
    131  CD1       29.6280  -57.8420   -4.4810 C.ar  284  TRP284      0.0946
    132  CD2       28.5530  -58.0010   -2.5060 C.ar  284  TRP284      0.0152
    133  NE1       30.3980  -57.2030   -3.5170 N.ar  284  TRP284     -0.2442
    134  CE2       29.7610  -57.2920   -2.3040 C.ar  284  TRP284      0.0810
    135  CE3       27.7130  -58.2250   -1.4090 C.ar  284  TRP284      0.0012
    136  CZ2       30.1450  -56.8080   -1.0390 C.ar  284  TRP284      0.0191
    137  CZ3       28.0930  -57.7350   -0.1430 C.ar  284  TRP284      0.0001
    138  CH2       29.2990  -57.0370    0.0240 C.ar  284  TRP284      0.0015
    139  N         35.1720  -59.4190    0.3870 N.3   290  ARG290     -0.1231
    140  CA        34.8520  -58.6130    1.5650 C.3   290  ARG290      0.1694
    141  C         34.4900  -59.5050    2.7620 C.2   290  ARG290      0.2592
    142  O         34.7400  -59.1370    3.9290 O.2   290  ARG290     -0.2718
    143  CB        33.6900  -57.6500    1.2580 C.3   290  ARG290      0.0321
    144  CG        33.5040  -56.5400    2.2860 C.3   290  ARG290      0.0489
    145  CD        32.1720  -55.8420    2.1420 C.3   290  ARG290      0.2205
    146  NE        32.0150  -54.7390    3.0910 N.pl3 290  ARG290     -0.0865
    147  CZ        32.6880  -53.5950    3.0420 C.cat 290  ARG290      0.5346
    148  NH1       33.5770  -53.3850    2.0790 N.pl3 290  ARG290      0.1354
    149  NH2       32.4770  -52.6600    3.9610 N.pl3 290  ARG290      0.1354
    150  N         33.9490  -60.6880    2.4590 N.am  291  TYR291     -0.1976
    151  CA        33.5230  -61.6540    3.4690 C.3   291  TYR291      0.1639
    152  C         34.4720  -62.8470    3.6090 C.2   291  TYR291      0.2290
    153  O         34.1310  -63.8580    4.2260 O.2   291  TYR291     -0.2864
    154  CB        32.1160  -62.1650    3.1180 C.3   291  TYR291      0.0560
    155  CG        31.0390  -61.0970    3.1010 C.ar  291  TYR291     -0.0198
    156  CD1       29.8460  -61.3010    2.4020 C.ar  291  TYR291     -0.0009
    157  CD2       31.1920  -59.9000    3.8000 C.ar  291  TYR291     -0.0009
    158  CE1       28.8270  -60.3390    2.3940 C.ar  291  TYR291      0.0417
    159  CE2       30.1840  -58.9370    3.8080 C.ar  291  TYR291      0.0417
    160  CZ        28.9980  -59.1670    3.1000 C.ar  291  TYR291      0.1957
    161  OH        27.9660  -58.2560    3.1360 O.3   291  TYR291     -0.2866
@<TRIPOS>BOND
     1    10    11    2
     2    10     9    1
     3     8     9    1
     4     1     2    1
     5     9    12    1
     6     3     4    2
     7     3     2    1
     8     2     5    1
     9    12    13    1
    10     5     7    1
    11     5     6    1
    12    13    14   ar
    13    13    15   ar
    14    14    16   ar
    15    20    21    1
    16    26    25    1
    17    24    25    1
    18    24    21    1
    19    25    27    1
    20   125   126    1
    21   117   118    1
    22    98    97    2
    23    21    22    1
    24    16    18   ar
    25    15    17   ar
    26    22    23    2
    27   126   129    1
    28   126   127    1
    29   129   130    1
    30   131   130   ar
    31   131   133   ar
    32    97    96    1
    33    18    17   ar
    34    18    19    1
    35   130   132   ar
    36   118   119    1
    37   118   121    1
    38   133   134   ar
    39   119   120    2
    40   127   128    2
    41   102   100    1
    42    96    99    1
    43    96    95    1
    44    44    42   ar
    45    44    46   ar
    46    42    41   ar
    47    90    89    2
    48   121   122    1
    49    99   100    1
    50   132   134   ar
    51   132   135   ar
    52   100   101    1
    53    28    29    1
    54   134   136   ar
    55    46    45   ar
    56    41    40    1
    57    41    43   ar
    58    40    37    1
    59    89    95   am
    60    89    88    1
    61    93    92    1
    62   122   124   am
    63   122   123    2
    64   135   137   ar
    65    34    33    1
    66    36    37    1
    67    36    30   am
    68    33    32    1
    69    33    35    1
    70    92    94    1
    71    92    91    1
    72    32    29    1
    73    45    43   ar
    74   136   138   ar
    75    29    30    1
    76    37    38    1
    77    88    91    1
    78    88    87    1
    79    30    31    2
    80    81    80    2
    81    38    39    2
    82   137   138   ar
    83   139   140    1
    84    80    79    1
    85    77    76    2
    86    79    82    1
    87    79    78    1
    88   143   140    1
    89   143   144    1
    90   109   108    2
    91   140   141    1
    92    84    85    1
    93    84    83    1
    94    82    83    1
    95    76    78   am
    96    76    75    1
    97   148   147    1
    98   145   144    1
    99   145   146    1
   100    85    86    1
   101   158   156   ar
   102   158   160   ar
   103   156   155   ar
   104   150   141   am
   105   150   151    1
   106   108   110   am
   107   108   107    1
   108    64    62   ar
   109    64    65   ar
   110    62    60   ar
   111   141   142    2
   112    47    48    1
   113    75    74    1
   114   147   146    2
   115   147   149    1
   116    65    63   ar
   117   160   161    1
   118   160   159   ar
   119   155   154    1
   120   155   157   ar
   121   154   151    1
   122    60    59    1
   123    60    61   ar
   124    59    56    1
   125   103   104    1
   126    51    48    1
   127    51    52    1
   128   151   152    1
   129    63    61   ar
   130   104   107    1
   131   104   105    1
   132   152   153    2
   133   157   159   ar
   134    48    49    1
   135    49    50    2
   136    55    56    1
   137    56    57    1
   138    52    54   ar
   139    52    53   ar
   140    69    68    2
   141   105   106    2
   142    73    71   ar
   143    57    58    2
   144   111   112    1
   145    68    67    1
   146    71    70    1
   147    71    72   ar
   148    70    67    1
   149   112   115    1
   150   112   113    1
   151   115   116    1
   152    67    66    1
   153   113   114    2
