@<TRIPOS>MOLECULE
tmp/3bnzA01.pdb
 130 129 0 0 0
SMALL
GASTEIGER

@<TRIPOS>ATOM
      1  N        -32.7340   34.3460    1.0700 N.3    60  GLU60      -0.1245
      2  CA       -33.3000   34.2830   -0.2540 C.3    60  GLU60       0.1567
      3  C        -34.0780   32.9930   -0.4890 C.2    60  GLU60       0.2260
      4  O        -35.1210   33.0310   -1.1080 O.2    60  GLU60      -0.2867
      5  CB       -32.2010   34.4620   -1.2990 C.3    60  GLU60       0.0388
      6  CG       -32.7240   34.4380   -2.7140 C.3    60  GLU60       0.1160
      7  CD       -31.8700   33.5680   -3.6250 C.2    60  GLU60       0.3649
      8  OE1      -31.4260   32.4560   -3.1870 O.co2  60  GLU60      -0.2457
      9  OE2      -31.6270   34.0400   -4.7530 O.co2  60  GLU60      -0.2457
     10  N        -28.8050   41.8910   -0.3110 N.3    80  HIS80      -0.1226
     11  CA       -28.9840   42.8430   -1.4230 C.3    80  HIS80       0.1752
     12  C        -28.9410   42.2200   -2.8300 C.2    80  HIS80       0.2596
     13  O        -29.0220   42.9160   -3.8290 O.2    80  HIS80      -0.2718
     14  CB       -27.9400   43.9530   -1.3290 C.3    80  HIS80       0.0759
     15  CG       -27.9540   44.6650   -0.0290 C.ar   80  HIS80       0.0818
     16  ND1      -28.9230   45.5930    0.2990 N.ar   80  HIS80      -0.2268
     17  CD2      -27.1290   44.5820    1.0400 C.ar   80  HIS80       0.1154
     18  CE1      -28.6990   46.0430    1.5200 C.ar   80  HIS80       0.1986
     19  NE2      -27.6210   45.4380    1.9940 N.ar   80  HIS80      -0.2212
     20  N        -28.7890   40.9020   -2.8740 N.am   81  ILE81      -0.1966
     21  CA       -28.7580   40.0790   -4.0950 C.3    81  ILE81       0.1727
     22  C        -29.7200   40.5520   -5.2080 C.2    81  ILE81       0.2616
     23  O        -29.2730   40.6960   -6.3480 O.2    81  ILE81      -0.2715
     24  CB       -28.9060   38.5460   -3.7190 C.3    81  ILE81       0.0290
     25  CG1      -27.5460   37.8730   -3.7220 C.3    81  ILE81       0.0022
     26  CG2      -29.8810   37.7520   -4.5710 C.3    81  ILE81       0.0023
     27  CD1      -27.1020   37.5500   -2.3160 C.3    81  ILE81       0.0001
     28  N        -30.9920   40.8290   -4.8620 N.am   82  TRP82      -0.1974
     29  CA       -32.0590   41.1860   -5.8200 C.3    82  TRP82       0.1640
     30  C        -32.2990   42.6810   -5.9280 C.2    82  TRP82       0.2290
     31  O        -33.3280   43.1030   -6.4710 O.2    82  TRP82      -0.2864
     32  CB       -33.3940   40.5060   -5.4640 C.3    82  TRP82       0.0576
     33  CG       -33.4400   39.0670   -5.8060 C.ar   82  TRP82       0.0006
     34  CD1      -32.9880   38.0330   -5.0420 C.ar   82  TRP82       0.0946
     35  CD2      -33.9680   38.4800   -7.0030 C.ar   82  TRP82       0.0152
     36  NE1      -33.1830   36.8200   -5.7020 N.ar   82  TRP82      -0.2442
     37  CE2      -33.7830   37.0770   -6.9060 C.ar   82  TRP82       0.0810
     38  CE3      -34.5700   38.9990   -8.1550 C.ar   82  TRP82       0.0012
     39  CZ2      -34.1760   36.1990   -7.9180 C.ar   82  TRP82       0.0191
     40  CZ3      -34.9740   38.1260   -9.1470 C.ar   82  TRP82       0.0001
     41  CH2      -34.7810   36.7400   -9.0200 C.ar   82  TRP82       0.0015
     42  N        -31.0970   45.5040   -7.4780 N.3    84  GLU84      -0.1231
     43  CA       -31.0160   46.3380   -8.6780 C.3    84  GLU84       0.1699
     44  C        -32.2930   46.3570   -9.5030 C.2    84  GLU84       0.2592
     45  O        -32.6760   47.4210  -10.0060 O.2    84  GLU84      -0.2718
     46  CB       -29.8590   45.8630   -9.5510 C.3    84  GLU84       0.0402
     47  CG       -28.5200   45.7950   -8.8160 C.3    84  GLU84       0.1161
     48  CD       -27.3430   45.9130   -9.7680 C.2    84  GLU84       0.3649
     49  OE1      -27.0070   44.9000  -10.4320 O.co2  84  GLU84      -0.2457
     50  OE2      -26.7540   47.0170   -9.8630 O.co2  84  GLU84      -0.2457
     51  N        -32.9320   45.1790   -9.6220 N.am   85  TRP85      -0.1976
     52  CA       -34.1940   44.9670  -10.3680 C.3    85  TRP85       0.1640
     53  C        -35.3730   45.7590   -9.7950 C.2    85  TRP85       0.2290
     54  O        -36.2470   46.1960  -10.5500 O.2    85  TRP85      -0.2864
     55  CB       -34.5460   43.4790  -10.4610 C.3    85  TRP85       0.0576
     56  CG       -33.3470   42.6190  -10.5950 C.ar   85  TRP85       0.0006
     57  CD1      -32.6590   42.0170   -9.5790 C.ar   85  TRP85       0.0946
     58  CD2      -32.6500   42.2800  -11.8070 C.ar   85  TRP85       0.0152
     59  NE1      -31.5720   41.3190  -10.0770 N.ar   85  TRP85      -0.2442
     60  CE2      -31.5410   41.4570  -11.4380 C.ar   85  TRP85       0.0810
     61  CE3      -32.8470   42.5900  -13.1650 C.ar   85  TRP85       0.0012
     62  CZ2      -30.6370   40.9390  -12.3720 C.ar   85  TRP85       0.0191
     63  CZ3      -31.9410   42.0750  -14.1010 C.ar   85  TRP85       0.0001
     64  CH2      -30.8440   41.2570  -13.6930 C.ar   85  TRP85       0.0015
     65  N        -39.2500   33.8650   -8.2950 N.3   144  TYR144     -0.1241
     66  CA       -39.5670   32.4580   -7.9150 C.3   144  TYR144      0.1605
     67  C        -40.6160   32.2700   -6.8410 C.2   144  TYR144      0.2264
     68  O        -41.2100   31.1980   -6.6930 O.2   144  TYR144     -0.2867
     69  CB       -38.2920   31.6530   -7.5840 C.3   144  TYR144      0.0534
     70  CG       -37.2600   31.6930   -8.7100 C.ar  144  TYR144     -0.0201
     71  CD1      -37.3810   30.8280   -9.8170 C.ar  144  TYR144     -0.0009
     72  CD2      -36.1900   32.6350   -8.6930 C.ar  144  TYR144     -0.0009
     73  CE1      -36.4500   30.8730  -10.8590 C.ar  144  TYR144      0.0417
     74  CE2      -35.2600   32.6870   -9.7150 C.ar  144  TYR144      0.0417
     75  CZ       -35.3920   31.8060  -10.8130 C.ar  144  TYR144      0.1957
     76  OH       -34.5030   31.8370  -11.8710 O.3   144  TYR144     -0.2866
     77  N        -33.7040   29.1760  -13.5780 N.3   197  HIS197     -0.1241
     78  CA       -33.9340   27.8910  -12.9660 C.3   197  HIS197      0.1621
     79  C        -35.2910   27.4740  -13.3790 C.2   197  HIS197      0.2264
     80  O        -36.2880   27.7690  -12.7040 O.2   197  HIS197     -0.2867
     81  CB       -33.7910   28.0140  -11.4580 C.3   197  HIS197      0.0745
     82  CG       -32.5000   28.6360  -11.0910 C.ar  197  HIS197      0.0817
     83  ND1      -32.4150   29.8560  -10.4490 N.ar  197  HIS197     -0.2268
     84  CD2      -31.2330   28.2730  -11.4040 C.ar  197  HIS197      0.1154
     85  CE1      -31.1430   30.1860  -10.3220 C.ar  197  HIS197      0.1986
     86  NE2      -30.4060   29.2380  -10.8870 N.ar  197  HIS197     -0.2212
     87  N        -20.0910   33.6860  -11.1500 N.3   222  LEU222     -0.1231
     88  CA       -21.0260   34.3000  -10.1640 C.3   222  LEU222      0.1693
     89  C        -22.2080   33.4350   -9.7760 C.2   222  LEU222      0.2592
     90  O        -22.4680   33.2450   -8.6000 O.2   222  LEU222     -0.2718
     91  CB       -21.6180   35.6150  -10.6570 C.3   222  LEU222      0.0284
     92  CG       -21.0520   37.0140  -10.4090 C.3   222  LEU222      0.0019
     93  CD1      -20.1020   37.1390   -9.1940 C.3   222  LEU222      0.0001
     94  CD2      -20.3980   37.4480  -11.6680 C.3   222  LEU222      0.0001
     95  N        -22.9320   32.9320  -10.7690 N.am  223  GLY223     -0.1957
     96  CA       -24.2290   32.3260  -10.5310 C.3   223  GLY223      0.1869
     97  C        -24.2120   30.9370   -9.9320 C.2   223  GLY223      0.2309
     98  O        -25.0450   30.6090   -9.0640 O.2   223  GLY223     -0.2863
     99  N        -23.7040   30.0440   -5.8090 N.3   226  PHE226     -0.1227
    100  CA       -24.9960   30.2610   -5.1160 C.3   226  PHE226      0.1736
    101  C        -26.0560   29.2420   -5.5070 C.2   226  PHE226      0.2595
    102  O        -26.7160   28.6210   -4.6380 O.2   226  PHE226     -0.2718
    103  CB       -25.5800   31.6360   -5.4260 C.3   226  PHE226      0.0547
    104  CG       -24.8910   32.7810   -4.7270 C.ar  226  PHE226     -0.0202
    105  CD1      -23.4880   32.9570   -4.8390 C.ar  226  PHE226     -0.0042
    106  CD2      -25.6480   33.7040   -3.9940 C.ar  226  PHE226     -0.0042
    107  CE1      -22.8280   34.0050   -4.2260 C.ar  226  PHE226     -0.0003
    108  CE2      -25.0170   34.7590   -3.3610 C.ar  226  PHE226     -0.0003
    109  CZ       -23.5730   34.9180   -3.4780 C.ar  226  PHE226     -0.0000
    110  N        -26.2240   29.1050   -6.8250 N.am  227  ASN227     -0.1974
    111  CA       -27.2410   28.2050   -7.3850 C.3   227  ASN227      0.1688
    112  C        -27.2100   26.7770   -6.8830 C.2   227  ASN227      0.2292
    113  O        -28.2890   26.1960   -6.5960 O.2   227  ASN227     -0.2864
    114  CB       -27.2230   28.2330   -8.9010 C.3   227  ASN227      0.1181
    115  CG       -27.5900   29.6100   -9.4590 C.2   227  ASN227      0.2629
    116  OD1      -27.4960   29.8180  -10.6700 O.2   227  ASN227     -0.2716
    117  ND2      -27.9890   30.5640   -8.5770 N.am  227  ASN227     -0.0877
    118  N        -28.3880   26.9050   -3.1530 N.3   230  SER230     -0.1217
    119  CA       -29.8250   27.1580   -2.9230 C.3   230  SER230      0.1889
    120  C        -30.6250   25.9090   -3.1710 C.2   230  SER230      0.2288
    121  O        -31.5620   25.5920   -2.4160 O.2   230  SER230     -0.2866
    122  CB       -30.4100   28.2720   -3.8020 C.3   230  SER230      0.2089
    123  OG       -29.4600   29.2870   -4.0900 O.3   230  SER230     -0.2183
    124  N        -19.6970   41.7580  -12.8690 N.3   312  VAL312     -0.1245
    125  CA       -20.9710   41.0690  -12.9090 C.3   312  VAL312      0.1561
    126  C        -21.2840   40.6520  -14.3420 C.2   312  VAL312      0.2260
    127  O        -21.8880   41.2990  -15.2430 O.2   312  VAL312     -0.2867
    128  CB       -22.0530   41.7620  -12.0560 C.3   312  VAL312      0.0252
    129  CG1      -22.6850   42.9030  -12.8380 C.3   312  VAL312      0.0019
    130  CG2      -23.1080   40.7550  -11.6280 C.3   312  VAL312      0.0019
@<TRIPOS>BOND
     1   127   126    2
     2   126   125    1
     3    63    64   ar
     4    63    61   ar
     5    64    62   ar
     6    77    78    1
     7    79    78    1
     8    79    80    2
     9    61    58   ar
    10    78    81    1
    11   125   124    1
    12   125   128    1
    13   129   128    1
    14    62    60   ar
    15   128   130    1
    16    76    75    1
    17    58    60   ar
    18    58    56   ar
    19    94    92    1
    20    81    82    1
    21    60    59   ar
    22    84    82   ar
    23    84    86   ar
    24    87    88    1
    25    82    83   ar
    26    86    85   ar
    27    73    75   ar
    28    73    71   ar
    29    75    74   ar
    30    95    96    1
    31    95    89   am
    32   116   115    2
    33    91    92    1
    34    91    88    1
    35    56    55    1
    36    56    57   ar
    37    54    53    2
    38    96    97    1
    39    55    52    1
    40    83    85   ar
    41    49    48   ar
    42    92    93    1
    43    52    53    1
    44    52    51    1
    45    88    89    1
    46    59    57   ar
    47    45    44    2
    48    97    98    2
    49    50    48   ar
    50    71    70   ar
    51    89    90    2
    52    48    47    1
    53    74    72   ar
    54    51    44   am
    55    46    47    1
    56    46    43    1
    57    44    43    1
    58   115   114    1
    59   115   117   am
    60    40    41   ar
    61    40    38   ar
    62    41    39   ar
    63   114   111    1
    64    70    72   ar
    65    70    69    1
    66    43    42    1
    67    65    66    1
    68    38    35   ar
    69    39    37   ar
    70    66    69    1
    71    66    67    1
    72   111   112    1
    73   111   110    1
    74    35    37   ar
    75    35    33   ar
    76    37    36   ar
    77   112   113    2
    78    67    68    2
    79   110   101   am
    80    31    30    2
    81    23    22    2
    82    30    29    1
    83    29    32    1
    84    29    28    1
    85    99   100    1
    86    33    32    1
    87    33    34   ar
    88    36    34   ar
    89   101   100    1
    90   101   102    2
    91   103   100    1
    92   103   104    1
    93    22    28   am
    94    22    21    1
    95   105   104   ar
    96   105   107   ar
    97     9     7   ar
    98   104   106   ar
    99    26    24    1
   100   107   109   ar
   101    21    24    1
   102    21    20    1
   103   123   122    1
   104   106   108   ar
   105    13    12    2
   106   122   119    1
   107    25    24    1
   108    25    27    1
   109     7     8   ar
   110     7     6    1
   111   109   108   ar
   112   120   119    1
   113   120   121    2
   114   118   119    1
   115    20    12   am
   116    12    11    1
   117     6     5    1
   118    11    14    1
   119    11    10    1
   120    14    15    1
   121     5     2    1
   122     4     3    2
   123     3     2    1
   124     2     1    1
   125    15    16   ar
   126    15    17   ar
   127    16    18   ar
   128    17    19   ar
   129    18    19   ar
