@<TRIPOS>MOLECULE
tmp/3bo5A00.pdb
 206 207 0 0 0
SMALL
GASTEIGER

@<TRIPOS>ATOM
      1  N         16.2430   19.9100   16.4200 N.3   119  LYS119     -0.1231
      2  CA        17.6470   20.1670   16.0160 C.3   119  LYS119      0.1693
      3  C         18.6990   19.1890   16.5080 C.2   119  LYS119      0.2592
      4  O         19.8810   19.3980   16.2680 O.2   119  LYS119     -0.2718
      5  CB        18.0280   21.5340   16.5610 C.3   119  LYS119      0.0285
      6  CG        17.3270   22.6480   15.8190 C.3   119  LYS119      0.0035
      7  CD        17.6980   23.9650   16.3490 C.3   119  LYS119      0.0206
      8  CE        19.1070   24.2530   15.8730 C.3   119  LYS119      0.1093
      9  NZ        19.5040   25.5580   16.2130 N.3   119  LYS119     -0.1314
     10  N         18.2930   18.1660   17.2680 N.am  120  LYS120     -0.1966
     11  CA        19.2260   17.2670   17.9580 C.3   120  LYS120      0.1728
     12  C         19.1520   15.8470   17.3970 C.2   120  LYS120      0.2617
     13  O         19.7420   14.9200   17.9720 O.2   120  LYS120     -0.2715
     14  CB        18.8940   17.2780   19.4680 C.3   120  LYS120      0.0311
     15  CG        18.9680   18.6830   20.1090 C.3   120  LYS120      0.0038
     16  CD        18.5240   18.6400   21.5840 C.3   120  LYS120      0.0206
     17  CE        17.1570   18.0390   21.7740 C.3   120  LYS120      0.1093
     18  NZ        16.6780   18.4560   23.1750 N.3   120  LYS120     -0.1314
     19  N         18.4920   15.6480   16.2320 N.am  121  GLY121     -0.1940
     20  CA        18.3050   14.3000   15.6930 C.3   121  GLY121      0.2014
     21  C         17.2550   13.5950   16.4690 C.2   121  GLY121      0.2638
     22  O         16.2940   14.2240   16.9110 O.2   121  GLY121     -0.2714
     23  N         17.4020   12.2850   16.6190 N.am  122  TRP122     -0.1973
     24  CA        16.3670   11.5480   17.3450 C.3   122  TRP122      0.1640
     25  C         16.5940   11.7410   18.8340 C.2   122  TRP122      0.2290
     26  O         17.7290   12.0280   19.2850 O.2   122  TRP122     -0.2864
     27  CB        16.4650   10.0510   17.0370 C.3   122  TRP122      0.0576
     28  CG        16.0630    9.7960   15.6390 C.ar  122  TRP122      0.0006
     29  CD1       16.8550    9.8630   14.5180 C.ar  122  TRP122      0.0946
     30  CD2       14.7330    9.5930   15.1870 C.ar  122  TRP122      0.0152
     31  NE1       16.0720    9.6070   13.3790 N.ar  122  TRP122     -0.2442
     32  CE2       14.7790    9.4670   13.7750 C.ar  122  TRP122      0.0810
     33  CE3       13.5130    9.4720   15.8420 C.ar  122  TRP122      0.0012
     34  CZ2       13.6350    9.1890   13.0080 C.ar  122  TRP122      0.0191
     35  CZ3       12.3680    9.1450   15.0730 C.ar  122  TRP122      0.0001
     36  CH2       12.4490    9.0730   13.6730 C.ar  122  TRP122      0.0015
     37  N         29.3640   14.5420   11.1350 N.3   159  SER159     -0.1202
     38  CA        27.9240   14.4350   11.4100 C.3   159  SER159      0.2020
     39  C         27.5460   13.1620   12.1970 C.2   159  SER159      0.2619
     40  O         26.3640   12.9720   12.5560 O.2   159  SER159     -0.2717
     41  CB        27.0640   14.6320   10.1250 C.3   159  SER159      0.2103
     42  OG        27.0570   13.4900    9.2630 O.3   159  SER159     -0.2182
     43  N         28.5450   12.3200   12.5010 N.am  160  ASP160     -0.1959
     44  CA        28.3170   11.1180   13.3260 C.3   160  ASP160      0.1840
     45  C         27.7140   11.5000   14.6950 C.2   160  ASP160      0.2623
     46  O         28.1980   12.4480   15.3490 O.2   160  ASP160     -0.2715
     47  CB        29.6260   10.3430   13.5700 C.3   160  ASP160      0.1450
     48  CG        30.1360    9.6070   12.3220 C.2   160  ASP160      0.3671
     49  OD1       29.4040    9.5470   11.3140 O.co2 160  ASP160     -0.2456
     50  OD2       31.2700    9.0800   12.3650 O.co2 160  ASP160     -0.2456
     51  N         26.6590   10.7920   15.1110 N.am  161  SER161     -0.1936
     52  CA        26.2240   10.8600   16.5240 C.3   161  SER161      0.2055
     53  C         27.3230   10.0880   17.2730 C.2   161  SER161      0.2643
     54  O         27.8750    9.0960   16.7420 O.2   161  SER161     -0.2714
     55  CB        24.8370   10.2210   16.7130 C.3   161  SER161      0.2130
     56  OG        23.8280   10.9150   15.9550 O.3   161  SER161     -0.2179
     57  N         27.7130   10.5830   18.4480 N.am  162  ASN162     -0.1957
     58  CA        28.8290    9.9960   19.2530 C.3   162  ASN162      0.1819
     59  C         28.1570    9.3270   20.4380 C.2   162  ASN162      0.2621
     60  O         27.3630   10.0180   21.1090 O.2   162  ASN162     -0.2715
     61  CB        29.6670   11.1450   19.7850 C.3   162  ASN162      0.1195
     62  CG        30.3160   11.9440   18.6650 C.2   162  ASN162      0.2630
     63  OD1       29.8570   13.0560   18.3040 O.2   162  ASN162     -0.2716
     64  ND2       31.3150   11.3680   18.0730 N.am  162  ASN162     -0.0877
     65  N         28.4420    8.0350   20.6890 N.am  163  TYR163     -0.1974
     66  CA        27.7180    7.3590   21.7920 C.3   163  TYR163      0.1639
     67  C         28.5670    6.7430   22.8680 C.2   163  TYR163      0.2290
     68  O         28.0350    6.2800   23.8810 O.2   163  TYR163     -0.2864
     69  CB        26.8610    6.1910   21.2090 C.3   163  TYR163      0.0560
     70  CG        25.8230    6.5310   20.1850 C.ar  163  TYR163     -0.0198
     71  CD1       26.1440    6.5060   18.8440 C.ar  163  TYR163     -0.0009
     72  CD2       24.5350    6.8580   20.5570 C.ar  163  TYR163     -0.0009
     73  CE1       25.1810    6.8650   17.8870 C.ar  163  TYR163      0.0417
     74  CE2       23.5680    7.1730   19.6740 C.ar  163  TYR163      0.0417
     75  CZ        23.8790    7.1670   18.2950 C.ar  163  TYR163      0.1957
     76  OH        22.9820    7.5130   17.3160 O.3   163  TYR163     -0.2866
     77  N         20.6440    4.8030   24.1470 N.3   186  ARG186     -0.1231
     78  CA        21.4740    5.4500   23.1140 C.3   186  ARG186      0.1694
     79  C         20.7620    6.6760   22.5480 C.2   186  ARG186      0.2592
     80  O         21.4160    7.5500   21.9830 O.2   186  ARG186     -0.2718
     81  CB        21.8540    4.4860   21.9670 C.3   186  ARG186      0.0321
     82  CG        20.6130    4.1510   21.1180 C.3   186  ARG186      0.0489
     83  CD        20.8410    2.9430   20.3150 C.3   186  ARG186      0.2205
     84  NE        21.9380    3.0900   19.3480 N.pl3 186  ARG186     -0.0865
     85  CZ        21.7950    3.6980   18.1560 C.cat 186  ARG186      0.5346
     86  NH1       20.6220    4.2940   17.8400 N.pl3 186  ARG186      0.1354
     87  NH2       22.8220    3.7210   17.2400 N.pl3 186  ARG186      0.1354
     88  N         19.4140    6.7430   22.6700 N.am  187  PHE187     -0.1962
     89  CA        18.7080    7.9080   22.0960 C.3   187  PHE187      0.1771
     90  C         18.5980    9.1140   23.0030 C.2   187  PHE187      0.2619
     91  O         18.0780   10.1420   22.6020 O.2   187  PHE187     -0.2715
     92  CB        17.2990    7.4870   21.6660 C.3   187  PHE187      0.0574
     93  CG        17.3260    6.5850   20.4580 C.ar  187  PHE187     -0.0200
     94  CD1       17.6700    7.1190   19.1970 C.ar  187  PHE187     -0.0042
     95  CD2       17.0310    5.2190   20.5640 C.ar  187  PHE187     -0.0042
     96  CE1       17.7380    6.2740   18.0740 C.ar  187  PHE187     -0.0003
     97  CE2       17.1080    4.3770   19.4390 C.ar  187  PHE187     -0.0003
     98  CZ        17.4170    4.9320   18.1760 C.ar  187  PHE187     -0.0000
     99  N         19.1300    9.0120   24.2220 N.am  188  LEU188     -0.1963
    100  CA        19.0550   10.1400   25.1450 C.3   188  LEU188      0.1728
    101  C         19.9360   11.2790   24.7320 C.2   188  LEU188      0.2616
    102  O         21.1800   11.1060   24.6350 O.2   188  LEU188     -0.2715
    103  CB        19.4970    9.7110   26.5030 C.3   188  LEU188      0.0311
    104  CG        18.5120    8.7080   27.1430 C.3   188  LEU188      0.0022
    105  CD1       19.2130    7.9860   28.3260 C.3   188  LEU188      0.0001
    106  CD2       17.1500    9.3580   27.5270 C.3   188  LEU188      0.0001
    107  N         19.3040   12.4310   24.5100 N.am  189  ASN189     -0.1958
    108  CA        20.1120   13.6240   24.2370 C.3   189  ASN189      0.1819
    109  C         20.6960   14.2490   25.4960 C.2   189  ASN189      0.2621
    110  O         20.3040   13.9360   26.6390 O.2   189  ASN189     -0.2715
    111  CB        19.2690   14.6090   23.3950 C.3   189  ASN189      0.1195
    112  CG        19.1020   14.1150   21.9980 C.2   189  ASN189      0.2630
    113  OD1       20.0490   13.6280   21.3890 O.2   189  ASN189     -0.2716
    114  ND2       17.8900   14.2730   21.4470 N.am  189  ASN189     -0.0877
    115  N         21.7000   15.1260   25.2970 N.am  190  HIS190     -0.1973
    116  CA        22.2680   15.8300   26.4120 C.3   190  HIS190      0.1656
    117  C         21.4170   17.0460   26.7670 C.2   190  HIS190      0.2291
    118  O         20.8530   17.7100   25.9510 O.2   190  HIS190     -0.2864
    119  CB        23.5940   16.4620   25.8880 C.3   190  HIS190      0.0771
    120  CG        24.1670   17.4510   26.8230 C.ar  190  HIS190      0.0820
    121  ND1       24.7790   17.0830   28.0060 N.ar  190  HIS190     -0.2267
    122  CD2       24.2030   18.8100   26.7740 C.ar  190  HIS190      0.1154
    123  CE1       25.1600   18.1840   28.6540 C.ar  190  HIS190      0.1986
    124  NE2       24.7860   19.2440   27.9340 N.ar  190  HIS190     -0.2212
    125  N         25.9010   14.9250   29.4430 N.3   228  TYR228     -0.1241
    126  CA        26.9700   14.1350   28.8290 C.3   228  TYR228      0.1605
    127  C         28.3260   14.3330   29.5530 C.2   228  TYR228      0.2264
    128  O         29.2160   13.5100   29.3300 O.2   228  TYR228     -0.2867
    129  CB        27.1480   14.5240   27.3610 C.3   228  TYR228      0.0534
    130  CG        26.1120   13.9610   26.4280 C.ar  228  TYR228     -0.0201
    131  CD1       24.9480   13.3400   26.9110 C.ar  228  TYR228     -0.0009
    132  CD2       26.3010   14.0370   25.0420 C.ar  228  TYR228     -0.0009
    133  CE1       23.9790   12.8580   26.0080 C.ar  228  TYR228      0.0417
    134  CE2       25.3750   13.5320   24.1480 C.ar  228  TYR228      0.0417
    135  CZ        24.2020   12.9430   24.6560 C.ar  228  TYR228      0.1957
    136  OH        23.3220   12.4820   23.7370 O.3   228  TYR228     -0.2866
    137  N         30.7890   11.3360   28.2200 N.3   243  ARG243     -0.1245
    138  CA        30.6150   10.9430   26.8260 C.3   243  ARG243      0.1563
    139  C         31.8140   11.3750   25.9930 C.2   243  ARG243      0.2260
    140  O         32.3630   12.4580   26.1840 O.2   243  ARG243     -0.2867
    141  CB        29.3350   11.5430   26.2440 C.3   243  ARG243      0.0307
    142  CG        28.1350   10.8570   26.8120 C.3   243  ARG243      0.0489
    143  CD        27.7690    9.6060   26.0190 C.3   243  ARG243      0.2205
    144  NE        27.2630    9.8090   24.6850 N.pl3 243  ARG243     -0.0865
    145  CZ        25.9500    9.8460   24.3730 C.cat 243  ARG243      0.5346
    146  NH1       25.0530    9.6250   25.3370 N.pl3 243  ARG243      0.1354
    147  NH2       25.5640   10.0360   23.1230 N.pl3 243  ARG243      0.1354
    148  N         31.0040   21.0520   19.7270 N.3   251  LYS251     -0.1231
    149  CA        29.7220   20.9340   19.0520 C.3   251  LYS251      0.1678
    150  C         28.7070   21.7630   19.8110 C.2   251  LYS251      0.2434
    151  O         28.7820   21.8260   21.0290 O.2   251  LYS251     -0.2733
    152  CB        29.2820   19.4850   19.0780 C.3   251  LYS251      0.0284
    153  CG        30.2140   18.6160   18.2240 C.3   251  LYS251      0.0035
    154  CD        29.4540   17.3920   17.8590 C.3   251  LYS251      0.0206
    155  CE        30.2720   16.4270   16.9960 C.3   251  LYS251      0.1093
    156  NZ        29.2760   15.4600   16.4440 N.3   251  LYS251     -0.1314
    157  N         27.8260   22.4540   19.1010 N.am  252  PRO252     -0.2718
    158  CA        26.8600   23.3390   19.7940 C.3   252  PRO252      0.1535
    159  C         25.8180   22.5090   20.4880 C.2   252  PRO252      0.2599
    160  O         25.4640   21.4450   19.9890 O.2   252  PRO252     -0.2715
    161  CB        26.1550   24.0790   18.6840 C.3   252  PRO252      0.0310
    162  CG        26.9050   23.7560   17.4620 C.3   252  PRO252      0.0237
    163  CD        27.7070   22.5410   17.6340 C.3   252  PRO252      0.0939
    164  N         25.3560   23.0440   21.6100 N.am  253  CYS253     -0.1954
    165  CA        24.2840   22.4250   22.3900 C.3   253  CYS253      0.1843
    166  C         23.0200   23.2260   22.0900 C.2   253  CYS253      0.2625
    167  O         23.0000   24.4600   22.1870 O.2   253  CYS253     -0.2714
    168  CB        24.5990   22.5000   23.9170 C.3   253  CYS253      0.0997
    169  SG        23.2860   21.6800   24.8130 S.3   253  CYS253     -0.0797
    170  N         21.9240   22.4950   21.8890 N.am  254  TYR254     -0.1960
    171  CA        20.6000   23.0780   21.6320 C.3   254  TYR254      0.1771
    172  C         19.6150   22.6150   22.7320 C.2   254  TYR254      0.2619
    173  O         18.3920   22.4710   22.4620 O.2   254  TYR254     -0.2715
    174  CB        20.0580   22.6890   20.2410 C.3   254  TYR254      0.0574
    175  CG        21.0160   22.9690   19.1240 C.ar  254  TYR254     -0.0198
    176  CD1       21.5630   24.2660   19.0120 C.ar  254  TYR254     -0.0009
    177  CD2       21.3300   22.0090   18.1910 C.ar  254  TYR254     -0.0009
    178  CE1       22.4340   24.5770   17.9550 C.ar  254  TYR254      0.0417
    179  CE2       22.2290   22.2950   17.1280 C.ar  254  TYR254      0.0417
    180  CZ        22.7500   23.5960   17.0430 C.ar  254  TYR254      0.1957
    181  OH        23.6040   23.9520   15.9940 O.3   254  TYR254     -0.2866
    182  N         20.1220   22.3600   23.9320 N.am  255  CYS255     -0.1968
    183  CA        19.2700   21.7690   24.9460 C.3   255  CYS255      0.1712
    184  C         18.2050   22.7410   25.3760 C.2   255  CYS255      0.2296
    185  O         17.1860   22.2690   25.8590 O.2   255  CYS255     -0.2864
    186  CB        20.0940   21.2710   26.1460 C.3   255  CYS255      0.0983
    187  SG        20.6500   22.5590   27.2990 S.3   255  CYS255     -0.0798
    188  N         28.1730   21.0690   23.6010 N.3   264  LEU264     -0.1245
    189  CA        27.9490   19.7310   24.0260 C.3   264  LEU264      0.1561
    190  C         29.2360   19.2420   24.6680 C.2   264  LEU264      0.2260
    191  O         30.2970   19.1990   23.9930 O.2   264  LEU264     -0.2867
    192  CB        27.5270   18.9220   22.7690 C.3   264  LEU264      0.0270
    193  CG        26.3830   17.9940   22.6650 C.3   264  LEU264      0.0019
    194  CD1       25.1620   18.6860   23.2830 C.3   264  LEU264      0.0001
    195  CD2       26.2620   17.6760   21.1990 C.3   264  LEU264      0.0001
    196  N         31.3620   16.8710   25.3370 N.3   266  PHE266     -0.1241
    197  CA        32.1430   15.6210   25.1280 C.3   266  PHE266      0.1605
    198  C         33.5730   15.7930   25.6010 C.2   266  PHE266      0.2264
    199  O         34.1100   16.9140   25.5800 O.2   266  PHE266     -0.2867
    200  CB        32.1630   15.2810   23.6410 C.3   266  PHE266      0.0534
    201  CG        30.8650   14.8500   23.0890 C.ar  266  PHE266     -0.0203
    202  CD1       30.3360   13.5750   23.3680 C.ar  266  PHE266     -0.0042
    203  CD2       30.1700   15.6830   22.1990 C.ar  266  PHE266     -0.0042
    204  CE1       29.1050   13.1640   22.8020 C.ar  266  PHE266     -0.0003
    205  CE2       28.9810   15.2960   21.6430 C.ar  266  PHE266     -0.0003
    206  CZ        28.4200   14.0190   21.9190 C.ar  266  PHE266     -0.0000
@<TRIPOS>BOND
     1    42    41    1
     2    41    38    1
     3    37    38    1
     4    49    48   ar
     5    38    39    1
     6    39    43   am
     7    39    40    2
     8    48    50   ar
     9    48    47    1
    10    43    44    1
    11    34    36   ar
    12    34    32   ar
    13    44    47    1
    14    44    45    1
    15    31    32   ar
    16    31    29   ar
    17    36    35   ar
    18    32    30   ar
    19    29    28   ar
    20    45    51   am
    21    45    46    2
    22    35    33   ar
    23    51    52    1
    24    30    28   ar
    25    30    33   ar
    26    28    27    1
    27    20    19    1
    28    20    21    1
    29     6     7    1
    30     6     5    1
    31     8     9    1
    32     8     7    1
    33    56    55    1
    34   181   180    1
    35     2     1    1
    36     2     3    1
    37     2     5    1
    38    19    12   am
    39     4     3    2
    40   156   155    1
    41    21    23   am
    42    21    22    2
    43     3    10   am
    44    52    55    1
    45    52    53    1
    46    23    24    1
    47    54    53    2
    48   155   154    1
    49    27    24    1
    50   180   179   ar
    51   180   178   ar
    52   179   177   ar
    53    87    85    1
    54    10    11    1
    55    53    57   am
    56    76    75    1
    57    24    25    1
    58    12    11    1
    59    12    13    2
    60   162   163    1
    61   162   161    1
    62   163   157    1
    63    86    85    1
    64   154   153    1
    65    73    75   ar
    66    73    71   ar
    67   178   176   ar
    68    11    14    1
    69    64    62   am
    70    96    98   ar
    71    96    94   ar
    72    85    84    2
    73    98    97   ar
    74   177   175   ar
    75   153   152    1
    76    75    74   ar
    77    63    62    2
    78    57    58    1
    79    62    61    1
    80   161   158    1
    81    25    26    2
    82    71    70   ar
    83   176   175   ar
    84   149   152    1
    85   149   148    1
    86   149   150    1
    87   157   158    1
    88   157   150   am
    89   175   174    1
    90    94    93   ar
    91    58    61    1
    92    58    59    1
    93    84    83    1
    94    97    95   ar
    95    14    15    1
    96    74    72   ar
    97   158   159    1
    98   150   151    2
    99   160   159    2
   100    15    16    1
   101    70    72   ar
   102    70    69    1
   103   174   171    1
   104    83    82    1
   105    59    65   am
   106    59    60    2
   107    93    95   ar
   108    93    92    1
   109   159   164   am
   110    65    66    1
   111    82    81    1
   112   195   193    1
   113    69    66    1
   114   113   112    2
   115   114   112   am
   116    16    17    1
   117   164   165    1
   118   171   170    1
   119   171   172    1
   120   205   206   ar
   121   205   203   ar
   122    92    89    1
   123    17    18    1
   124    66    67    1
   125   170   166   am
   126   206   204   ar
   127    81    78    1
   128    80    79    2
   129   112   111    1
   130   166   167    2
   131   166   165    1
   132    89    88    1
   133    89    90    1
   134   203   201   ar
   135   165   168    1
   136   173   172    2
   137    79    88   am
   138    79    78    1
   139    91    90    2
   140   193   192    1
   141   193   194    1
   142   172   182   am
   143   192   189    1
   144   204   202   ar
   145    67    68    2
   146    90    99   am
   147   201   202   ar
   148   201   200    1
   149    78    77    1
   150   147   145    1
   151   111   108    1
   152   188   189    1
   153   200   197    1
   154   136   135    1
   155   168   169    1
   156   182   183    1
   157   191   190    2
   158   189   190    1
   159   134   135   ar
   160   134   132   ar
   161    99   100    1
   162   108   107    1
   163   108   109    1
   164   145   144    2
   165   145   146    1
   166   107   101   am
   167   102   101    2
   168   135   133   ar
   169   144   143    1
   170   101   100    1
   171   183   184    1
   172   183   186    1
   173   132   130   ar
   174   197   196    1
   175   197   198    1
   176   100   103    1
   177   115   109   am
   178   115   116    1
   179   184   185    2
   180   109   110    2
   181   199   198    2
   182   119   116    1
   183   119   120    1
   184   118   117    2
   185   139   140    2
   186   139   138    1
   187   133   131   ar
   188   143   142    1
   189   186   187    1
   190   141   142    1
   191   141   138    1
   192   116   117    1
   193   130   131   ar
   194   130   129    1
   195   103   104    1
   196   122   120   ar
   197   122   124   ar
   198   120   121   ar
   199   138   137    1
   200   104   106    1
   201   104   105    1
   202   129   126    1
   203   124   123   ar
   204   121   123   ar
   205   126   125    1
   206   126   127    1
   207   128   127    2
