@<TRIPOS>MOLECULE
tmp/3bo7C00.pdb
 169 161 0 0 0
SMALL
GASTEIGER

@<TRIPOS>ATOM
      1  N         61.3250   89.3670    8.6400 N.3    45  HIS45      -0.1226
      2  CA        61.9970   88.1040    8.9380 C.3    45  HIS45       0.1752
      3  C         61.4110   86.9120    8.2020 C.2    45  HIS45       0.2595
      4  O         61.9910   85.8260    8.2220 O.2    45  HIS45      -0.2718
      5  CB        61.9800   87.8470   10.4490 C.3    45  HIS45       0.0759
      6  CG        60.6140   87.5850   11.0020 C.ar   45  HIS45       0.0818
      7  ND1       59.8200   88.5810   11.5270 N.ar   45  HIS45      -0.2268
      8  CD2       59.9040   86.4370   11.1120 C.ar   45  HIS45       0.1154
      9  CE1       58.6720   88.0600   11.9220 C.ar   45  HIS45       0.1986
     10  NE2       58.7000   86.7600   11.6890 N.ar   45  HIS45      -0.2212
     11  N         60.2620   87.1090    7.5650 N.am   46  ARG46      -0.1980
     12  CA        59.5590   86.0090    6.9120 C.3    46  ARG46       0.1597
     13  C         58.8410   86.5270    5.6780 C.2    46  ARG46       0.2287
     14  O         58.0190   87.4400    5.7680 O.2    46  ARG46      -0.2864
     15  CB        58.5920   85.3150    7.8900 C.3    46  ARG46       0.0334
     16  CG        57.7920   84.1860    7.2690 C.3    46  ARG46       0.0492
     17  CD        57.0310   83.3750    8.3140 C.3    46  ARG46       0.2205
     18  NE        56.1610   82.3670    7.6970 N.pl3  46  ARG46      -0.0865
     19  CZ        54.8410   82.4930    7.5310 C.cat  46  ARG46       0.5346
     20  NH1       54.1980   83.5810    7.9540 N.pl3  46  ARG46       0.1354
     21  NH2       54.1560   81.5160    6.9490 N.pl3  46  ARG46       0.1354
     22  N         57.2520   85.2250    1.7740 N.3    48  ILE48      -0.1245
     23  CA        56.7730   84.1310    0.9430 C.3    48  ILE48       0.1561
     24  C         56.1900   84.6590   -0.3770 C.2    48  ILE48       0.2260
     25  O         55.1530   85.3400   -0.3910 O.2    48  ILE48      -0.2867
     26  CB        55.7670   83.2180    1.7160 C.3    48  ILE48       0.0252
     27  CG1       56.4630   82.5600    2.9140 C.3    48  ILE48       0.0019
     28  CG2       55.2020   82.1300    0.8180 C.3    48  ILE48       0.0019
     29  CD1       55.5380   81.8930    3.9060 C.3    48  ILE48       0.0001
     30  N         54.1850   85.2300   -3.5490 N.3    50  ASN50      -0.1225
     31  CA        52.7370   85.0380   -3.7610 C.3    50  ASN50       0.1785
     32  C         51.8760   85.0240   -2.4940 C.2    50  ASN50       0.2597
     33  O         50.7000   84.6530   -2.5510 O.2    50  ASN50      -0.2718
     34  CB        52.4540   83.7700   -4.5840 C.3    50  ASN50       0.1169
     35  CG        52.8760   83.9020   -6.0240 C.2    50  ASN50       0.2627
     36  OD1       52.6950   84.9510   -6.6520 O.2    50  ASN50      -0.2716
     37  ND2       53.4450   82.8340   -6.5630 N.am   50  ASN50      -0.0877
     38  N         52.4510   85.4280   -1.3650 N.am   51  PHE51      -0.1962
     39  CA        51.7280   85.4380   -0.0940 C.3    51  PHE51       0.1771
     40  C         51.9140   86.7920    0.6110 C.2    51  PHE51       0.2619
     41  O         51.1600   87.7360    0.3500 O.2    51  PHE51      -0.2715
     42  CB        52.1590   84.2280    0.7580 C.3    51  PHE51       0.0574
     43  CG        51.4400   84.0960    2.0750 C.ar   51  PHE51      -0.0200
     44  CD1       50.1460   84.5800    2.2480 C.ar   51  PHE51      -0.0042
     45  CD2       52.0600   83.4500    3.1450 C.ar   51  PHE51      -0.0042
     46  CE1       49.4860   84.4450    3.4750 C.ar   51  PHE51      -0.0003
     47  CE2       51.4080   83.3050    4.3700 C.ar   51  PHE51      -0.0003
     48  CZ        50.1150   83.8100    4.5340 C.ar   51  PHE51      -0.0000
     49  N         52.9260   86.9060    1.4650 N.am   52  MET52      -0.1977
     50  CA        53.1400   88.1380    2.2160 C.3    52  MET52       0.1605
     51  C         54.5710   88.2670    2.7080 C.2    52  MET52       0.2287
     52  O         55.3470   87.3130    2.6290 O.2    52  MET52      -0.2864
     53  CB        52.1540   88.2450    3.4040 C.3    52  MET52       0.0413
     54  CG        52.1620   87.0860    4.4050 C.3    52  MET52       0.0598
     55  SD        53.5020   87.0620    5.6280 S.3    52  MET52      -0.1393
     56  CE        54.4690   85.6430    5.0790 C.3    52  MET52       0.0692
     57  N         56.4990   89.6070    6.4120 N.3    54  GLN54      -0.1245
     58  CA        56.1510   89.7460    7.8210 C.3    54  GLN54       0.1566
     59  C         57.2610   90.4350    8.6120 C.2    54  GLN54       0.2260
     60  O         58.4300   90.0960    8.4620 O.2    54  GLN54      -0.2867
     61  CB        55.8600   88.3600    8.4040 C.3    54  GLN54       0.0367
     62  CG        55.4530   88.3220    9.8690 C.3    54  GLN54       0.0905
     63  CD        55.2690   86.9020   10.3880 C.2    54  GLN54       0.2608
     64  OE1       55.3900   85.9350    9.6400 O.2    54  GLN54      -0.2717
     65  NE2       54.9760   86.7750   11.6790 N.am   54  GLN54      -0.0878
     66  N         58.7620   92.0080   14.7860 N.3    57  ARG57      -0.1245
     67  CA        59.1610   91.1800   15.9270 C.3    57  ARG57       0.1563
     68  C         60.2820   91.8540   16.7180 C.2    57  ARG57       0.2260
     69  O         61.4030   92.0180   16.2330 O.2    57  ARG57      -0.2867
     70  CB        59.5550   89.7630   15.4780 C.3    57  ARG57       0.0307
     71  CG        59.7640   88.7520   16.6240 C.3    57  ARG57       0.0489
     72  CD        59.6250   87.3040   16.1450 C.3    57  ARG57       0.2205
     73  NE        59.8340   86.3250   17.2170 N.pl3  57  ARG57      -0.0865
     74  CZ        58.9130   85.9730   18.1150 C.cat  57  ARG57       0.5346
     75  NH1       57.7020   86.5150   18.0870 N.pl3  57  ARG57       0.1354
     76  NH2       59.2070   85.0810   19.0500 N.pl3  57  ARG57       0.1354
     77  N         49.7800   90.1600   12.4160 N.3   100  ALA100     -0.1231
     78  CA        50.1010   88.7750   12.7030 C.3   100  ALA100      0.1694
     79  C         49.6890   88.5270   14.1560 C.2   100  ALA100      0.2592
     80  O         49.7500   89.4400   14.9800 O.2   100  ALA100     -0.2718
     81  CB        51.5770   88.5180   12.4930 C.3   100  ALA100      0.0304
     82  N         49.2340   87.3140   14.4630 N.am  101  ASN101     -0.1960
     83  CA        48.8120   86.9800   15.8280 C.3   101  ASN101      0.1819
     84  C         49.0860   85.5210   16.1810 C.2   101  ASN101      0.2621
     85  O         49.6300   84.7780   15.3660 O.2   101  ASN101     -0.2715
     86  CB        47.3360   87.3390   16.0490 C.3   101  ASN101      0.1195
     87  CG        46.3960   86.5800   15.1270 C.2   101  ASN101      0.2630
     88  OD1       46.4000   85.3470   15.0780 O.2   101  ASN101     -0.2716
     89  ND2       45.5700   87.3180   14.4020 N.am  101  ASN101     -0.0877
     90  N         48.7160   85.1290   17.4000 N.am  102  ASP102     -0.1957
     91  CA        48.7970   83.7350   17.8630 C.3   102  ASP102      0.1840
     92  C         47.4100   83.1440   18.1560 C.2   102  ASP102      0.2622
     93  O         47.2700   82.2690   19.0050 O.2   102  ASP102     -0.2715
     94  CB        49.6760   83.6470   19.1250 C.3   102  ASP102      0.1450
     95  CG        51.1510   83.4930   18.7990 C.2   102  ASP102      0.3671
     96  OD1       51.4550   82.9700   17.7000 O.co2 102  ASP102     -0.2456
     97  OD2       52.0090   83.8870   19.6300 O.co2 102  ASP102     -0.2456
     98  N         46.3920   83.6230   17.4530 N.am  103  GLY103     -0.1954
     99  CA        45.0060   83.2900   17.7780 C.3   103  GLY103      0.1869
    100  C         44.2110   84.5200   18.1760 C.2   103  GLY103      0.2309
    101  O         44.7310   85.6400   18.1440 O.2   103  GLY103     -0.2863
    102  N         45.1510   88.4430   20.3060 N.3   106  SER106     -0.1217
    103  CA        46.5270   88.3410   20.7630 C.3   106  SER106      0.1889
    104  C         47.4480   89.3200   20.0220 C.2   106  SER106      0.2288
    105  O         48.6320   89.0390   19.8260 O.2   106  SER106     -0.2866
    106  CB        47.0290   86.8980   20.6220 C.3   106  SER106      0.2089
    107  OG        47.0790   86.4900   19.2650 O.3   106  SER106     -0.2183
    108  N         53.5280   92.5760   15.6970 N.3   110  GLU110     -0.1245
    109  CA        53.8700   91.9180   14.4380 C.3   110  GLU110      0.1567
    110  C         52.7930   92.0610   13.3820 C.2   110  GLU110      0.2260
    111  O         51.6020   91.9300   13.6510 O.2   110  GLU110     -0.2867
    112  CB        54.1910   90.4450   14.6430 C.3   110  GLU110      0.0388
    113  CG        55.4920   90.2120   15.3310 C.3   110  GLU110      0.1160
    114  CD        55.8950   88.7540   15.3410 C.2   110  GLU110      0.3649
    115  OE1       56.0040   88.1340   14.2500 O.co2 110  GLU110     -0.2457
    116  OE2       56.1250   88.2320   16.4540 O.co2 110  GLU110     -0.2457
    117  N         51.9620   91.9180    8.8100 N.3   112  PHE112     -0.1241
    118  CA        52.3460   91.5360    7.4730 C.3   112  PHE112      0.1605
    119  C         51.7290   92.4600    6.4350 C.2   112  PHE112      0.2264
    120  O         50.7170   93.1320    6.6920 O.2   112  PHE112     -0.2867
    121  CB        52.0220   90.0590    7.1820 C.3   112  PHE112      0.0534
    122  CG        50.5470   89.7020    7.2480 C.ar  112  PHE112     -0.0203
    123  CD1       49.8220   89.4980    6.0850 C.ar  112  PHE112     -0.0042
    124  CD2       49.9090   89.5060    8.4740 C.ar  112  PHE112     -0.0042
    125  CE1       48.4790   89.1290    6.1330 C.ar  112  PHE112     -0.0003
    126  CE2       48.5640   89.1420    8.5370 C.ar  112  PHE112     -0.0003
    127  CZ        47.8470   88.9480    7.3640 C.ar  112  PHE112     -0.0000
    128  N         44.9210   86.7480   -0.0290 N.3   118  CYS118     -0.1235
    129  CA        44.9940   85.6290    0.8960 C.3   118  CYS118      0.1677
    130  C         43.7880   85.6930    1.8290 C.2   118  CYS118      0.2270
    131  O         43.9300   85.7020    3.0520 O.2   118  CYS118     -0.2867
    132  CB        46.3270   85.6320    1.6570 C.3   118  CYS118      0.0956
    133  SG        46.8690   87.2510    2.3020 S.3   118  CYS118     -0.0801
    134  N         41.5930   83.7750    2.9560 N.3   120  HIS120     -0.1226
    135  CA        41.3350   82.7590    3.9610 C.3   120  HIS120      0.1752
    136  C         41.7040   83.3210    5.3430 C.2   120  HIS120      0.2595
    137  O         41.3520   82.7310    6.3850 O.2   120  HIS120     -0.2718
    138  CB        42.0960   81.4620    3.6390 C.3   120  HIS120      0.0759
    139  CG        43.5840   81.6080    3.6630 C.ar  120  HIS120      0.0818
    140  ND1       44.2980   82.1330    2.6070 N.ar  120  HIS120     -0.2268
    141  CD2       44.4930   81.2930    4.6160 C.ar  120  HIS120      0.1154
    142  CE1       45.5820   82.1460    2.9140 C.ar  120  HIS120      0.1986
    143  NE2       45.7280   81.6370    4.1270 N.ar  120  HIS120     -0.2212
    144  N         42.4050   84.4670    5.3270 N.am  121  LEU121     -0.1980
    145  CA        42.8310   85.1850    6.5410 C.3   121  LEU121      0.1596
    146  C         41.7900   86.1830    7.0320 C.2   121  LEU121      0.2287
    147  O         41.8910   86.6990    8.1390 O.2   121  LEU121     -0.2864
    148  CB        44.1850   85.8730    6.3290 C.3   121  LEU121      0.0297
    149  CG        45.4020   84.9610    6.0680 C.3   121  LEU121      0.0022
    150  CD1       46.6660   85.7750    5.8750 C.3   121  LEU121      0.0001
    151  CD2       45.6180   83.9250    7.1770 C.3   121  LEU121      0.0001
    152  N         42.5910   88.0180   11.0720 N.3   125  HIS125     -0.1241
    153  CA        43.6440   89.0110   11.2530 C.3   125  HIS125      0.1621
    154  C         43.1100   90.4170   11.0440 C.2   125  HIS125      0.2264
    155  O         42.3590   90.6790   10.0990 O.2   125  HIS125     -0.2867
    156  CB        44.8210   88.6940   10.3340 C.3   125  HIS125      0.0745
    157  CG        45.4520   87.3740   10.6420 C.ar  125  HIS125      0.0817
    158  ND1       46.6070   87.2540   11.3870 N.ar  125  HIS125     -0.2268
    159  CD2       45.0490   86.1110   10.3660 C.ar  125  HIS125      0.1154
    160  CE1       46.8980   85.9750   11.5390 C.ar  125  HIS125      0.1986
    161  NE2       45.9690   85.2610   10.9290 N.ar  125  HIS125     -0.2212
    162  N         61.9980   80.3300    5.2910 N.3   150  ASP150     -0.1239
    163  CA        61.3710   81.4820    4.6100 C.3   150  ASP150      0.1674
    164  C         61.9260   82.8700    4.9490 C.2   150  ASP150      0.2266
    165  O         61.4170   83.8710    4.4470 O.2   150  ASP150     -0.2867
    166  CB        59.8480   81.4670    4.7830 C.3   150  ASP150      0.1410
    167  CG        59.2000   80.3060    4.0760 C.2   150  ASP150      0.3668
    168  OD1       59.4650   80.1200    2.8680 O.co2 150  ASP150     -0.2456
    169  OD2       58.4180   79.5790    4.7320 O.co2 150  ASP150     -0.2456
@<TRIPOS>BOND
     1    36    35    2
     2    37    35   am
     3    35    34    1
     4    34    31    1
     5    31    30    1
     6    31    32    1
     7    33    32    2
     8    32    38   am
     9    38    39    1
    10    25    24    2
    11    24    23    1
    12    39    40    1
    13    39    42    1
    14   128   129    1
    15    41    40    2
    16    40    49   am
    17    42    43    1
    18    28    26    1
    19   129   132    1
    20   129   130    1
    21    23    26    1
    22    23    22    1
    23    49    50    1
    24   132   133    1
    25    26    27    1
    26   130   131    2
    27    43    44   ar
    28    43    45   ar
    29    50    51    1
    30    50    53    1
    31    44    46   ar
    32   140   142   ar
    33   140   139   ar
    34    52    51    2
    35   168   167   ar
    36   142   143   ar
    37    27    29    1
    38   134   135    1
    39    45    47   ar
    40    53    54    1
    41    46    48   ar
    42   138   139    1
    43   138   135    1
    44   139   141   ar
    45   135   136    1
    46   167   169   ar
    47   167   166    1
    48   143   141   ar
    49    47    48   ar
    50    54    55    1
    51   165   164    2
    52   163   166    1
    53   163   164    1
    54   163   162    1
    55    56    55    1
    56   144   136   am
    57   144   145    1
    58   136   137    2
    59    13    14    2
    60    13    12    1
    61   150   149    1
    62   149   148    1
    63   149   151    1
    64   123   125   ar
    65   123   122   ar
    66   125   127   ar
    67   148   145    1
    68    57    58    1
    69   119   120    2
    70   119   118    1
    71   145   146    1
    72    12    11    1
    73    12    15    1
    74    21    19    1
    75   146   147    2
    76   121   122    1
    77   121   118    1
    78   122   124   ar
    79    16    15    1
    80    16    17    1
    81   127   126   ar
    82   118   117    1
    83    19    18    2
    84    19    20    1
    85    11     3   am
    86    18    17    1
    87    58    61    1
    88    58    59    1
    89     3     4    2
    90     3     2    1
    91    61    62    1
    92    60    59    2
    93   124   126   ar
    94     1     2    1
    95     2     5    1
    96    64    63    2
    97    62    63    1
    98   155   154    2
    99   156   157    1
   100   156   153    1
   101   159   157   ar
   102   159   161   ar
   103    63    65   am
   104     5     6    1
   105   157   158   ar
   106   161   160   ar
   107     6     8   ar
   108     6     7   ar
   109   154   153    1
   110   152   153    1
   111     8    10   ar
   112   158   160   ar
   113     7     9   ar
   114    10     9   ar
   115    77    78    1
   116    81    78    1
   117    78    79    1
   118   110   111    2
   119   110   109    1
   120    79    82   am
   121    79    80    2
   122   115   114   ar
   123    89    87   am
   124   109   112    1
   125   109   108    1
   126    82    83    1
   127   112   113    1
   128    66    67    1
   129    88    87    2
   130    87    86    1
   131   113   114    1
   132   114   116   ar
   133    85    84    2
   134    70    67    1
   135    70    71    1
   136    83    86    1
   137    83    84    1
   138    67    68    1
   139    72    71    1
   140    72    73    1
   141    84    90   am
   142    69    68    2
   143    73    74    2
   144    90    91    1
   145    98    99    1
   146    98    92   am
   147    96    95   ar
   148    99   100    1
   149    91    92    1
   150    91    94    1
   151    75    74    1
   152    74    76    1
   153   101   100    2
   154    92    93    2
   155    95    94    1
   156    95    97   ar
   157   107   106    1
   158   105   104    2
   159   104   103    1
   160   102   103    1
   161   106   103    1
