@<TRIPOS>MOLECULE
tmp/3bo7D00.pdb
 92 84 0 0 0
SMALL
GASTEIGER

@<TRIPOS>ATOM
      1  N          9.6530   95.6620   16.3890 N.3    58  ARG58      -0.1245
      2  CA        10.2310   95.1100   15.1750 C.3    58  ARG58       0.1563
      3  C          9.6440   95.8000   13.9520 C.2    58  ARG58       0.2260
      4  O          8.4460   95.6900   13.6740 O.2    58  ARG58      -0.2867
      5  CB        10.0340   93.5890   15.1070 C.3    58  ARG58       0.0307
      6  CG        10.7340   92.9510   13.9290 C.3    58  ARG58       0.0489
      7  CD        10.7630   91.4310   14.0030 C.3    58  ARG58       0.2205
      8  NE        11.4850   90.8800   12.8610 N.pl3  58  ARG58      -0.0865
      9  CZ        12.8130   90.8530   12.7460 C.cat  58  ARG58       0.5346
     10  NH1       13.5880   91.3360   13.7090 N.pl3  58  ARG58       0.1354
     11  NH2       13.3710   90.3420   11.6600 N.pl3  58  ARG58       0.1354
     12  N         10.1020   95.1160   10.8290 N.3    60  GLU60      -0.1245
     13  CA         9.6930   94.1270    9.8260 C.3    60  GLU60       0.1567
     14  C          8.2420   93.6680    9.9740 C.2    60  GLU60       0.2260
     15  O          7.6500   93.1680    9.0220 O.2    60  GLU60      -0.2867
     16  CB        10.6270   92.9130    9.8580 C.3    60  GLU60       0.0388
     17  CG        12.0460   93.1870    9.3480 C.3    60  GLU60       0.1160
     18  CD        12.9800   93.7960   10.3960 C.2    60  GLU60       0.3649
     19  OE1       12.5450   94.0900   11.5330 O.co2  60  GLU60      -0.2457
     20  OE2       14.1680   93.9820   10.0750 O.co2  60  GLU60      -0.2457
     21  N         13.3190   97.7620    7.5960 N.3    69  ARG69      -0.1231
     22  CA        14.3270   97.0110    8.3330 C.3    69  ARG69       0.1694
     23  C         14.5030   97.6290    9.7210 C.2    69  ARG69       0.2592
     24  O         14.4740   98.8540    9.8710 O.2    69  ARG69      -0.2718
     25  CB        15.6490   97.0750    7.5760 C.3    69  ARG69       0.0321
     26  CG        16.7020   96.0950    8.0400 C.3    69  ARG69       0.0489
     27  CD        18.0250   96.4170    7.3740 C.3    69  ARG69       0.2205
     28  NE        18.0250   96.1420    5.9370 N.pl3  69  ARG69      -0.0865
     29  CZ        18.9730   96.5570    5.0960 C.cat  69  ARG69       0.5346
     30  NH1       19.9960   97.2770    5.5380 N.pl3  69  ARG69       0.1354
     31  NH2       18.8980   96.2580    3.8080 N.pl3  69  ARG69       0.1354
     32  N         14.6780   96.7860   10.7330 N.am   70  SER70      -0.1952
     33  CA        14.9120   97.2760   12.0900 C.3    70  SER70       0.1924
     34  C         16.2440   98.0090   12.1520 C.2    70  SER70       0.2314
     35  O         17.2560   97.5220   11.6340 O.2    70  SER70      -0.2863
     36  CB        14.8950   96.1370   13.1030 C.3    70  SER70       0.2116
     37  OG        13.5900   95.6260   13.2770 O.3    70  SER70      -0.2180
     38  N         22.8690  106.3650   10.3890 N.3    76  GLY76      -0.1225
     39  CA        23.4120  105.1190    9.8470 C.3    76  GLY76       0.1811
     40  C         22.6210  103.9060   10.3180 C.2    76  GLY76       0.2280
     41  O         22.5990  102.8770    9.6430 O.2    76  GLY76      -0.2866
     42  N         23.7740   98.9010   14.8670 N.3    79  PRO79      -0.2116
     43  CA        23.5190   98.4530   16.2580 C.3    79  PRO79       0.1372
     44  C         24.4740   99.1080   17.2630 C.2    79  PRO79       0.2244
     45  O         25.6160   99.4490   16.9160 O.2    79  PRO79      -0.2868
     46  CB        23.7470   96.9420   16.1970 C.3    79  PRO79       0.0268
     47  CG        24.6300   96.7280   14.9920 C.3    79  PRO79       0.0207
     48  CD        24.2830   97.8100   14.0070 C.3    79  PRO79       0.0892
     49  N         15.7190   93.8190   23.4300 N.3    99  ALA99      -0.1231
     50  CA        15.9110   92.5120   22.8090 C.3    99  ALA99       0.1694
     51  C         17.1860   92.5710   21.9550 C.2    99  ALA99       0.2592
     52  O         17.5470   93.6380   21.4350 O.2    99  ALA99      -0.2718
     53  CB        14.6890   92.1250   21.9700 C.3    99  ALA99       0.0304
     54  N         17.8880   91.4470   21.8370 N.am  100  ASN100     -0.1960
     55  CA        19.1010   91.3850   21.0070 C.3   100  ASN100      0.1819
     56  C         19.3600   89.9810   20.4410 C.2   100  ASN100      0.2621
     57  O         18.5710   89.0700   20.6850 O.2   100  ASN100     -0.2715
     58  CB        20.3300   91.9360   21.7740 C.3   100  ASN100      0.1195
     59  CG        20.6920   91.1050   23.0020 C.2   100  ASN100      0.2630
     60  OD1       20.8060   89.8730   22.9390 O.2   100  ASN100     -0.2716
     61  ND2       20.8890   91.7850   24.1280 N.am  100  ASN100     -0.0877
     62  N         20.4400   89.8280   19.6630 N.am  101  ASP101     -0.1971
     63  CA        20.9460   88.5020   19.2500 C.3   101  ASP101      0.1709
     64  C         22.3710   88.2410   19.7540 C.2   101  ASP101      0.2293
     65  O         23.2160   87.7180   19.0220 O.2   101  ASP101     -0.2864
     66  CB        20.8920   88.3350   17.7330 C.3   101  ASP101      0.1436
     67  CG        19.5000   88.0890   17.2380 C.2   101  ASP101      0.3671
     68  OD1       18.7240   87.4300   17.9530 O.co2 101  ASP101     -0.2456
     69  OD2       19.1650   88.5670   16.1370 O.co2 101  ASP101     -0.2456
     70  N         24.1940   94.1200   19.9770 N.3   105  SER105     -0.1217
     71  CA        23.3680   94.0000   18.7710 C.3   105  SER105      0.1889
     72  C         22.0020   94.6590   19.0040 C.2   105  SER105      0.2288
     73  O         20.9450   94.1260   18.6400 O.2   105  SER105     -0.2866
     74  CB        23.2120   92.5310   18.3630 C.3   105  SER105      0.2089
     75  OG        22.5780   91.7880   19.3810 O.3   105  SER105     -0.2183
     76  N         19.2090   97.3070   18.3710 N.3   107  LEU107     -0.1245
     77  CA        18.6040   98.1300   17.3210 C.3   107  LEU107      0.1561
     78  C         17.3340   98.8000   17.8600 C.2   107  LEU107      0.2260
     79  O         17.4060   99.9200   18.3950 O.2   107  LEU107     -0.2867
     80  CB        18.3120   97.3010   16.0550 C.3   107  LEU107      0.0270
     81  CG        19.5000   96.8440   15.1900 C.3   107  LEU107      0.0019
     82  CD1       19.0310   95.9840   14.0390 C.3   107  LEU107      0.0001
     83  CD2       20.2750   98.0090   14.6420 C.3   107  LEU107      0.0001
     84  N         14.2010   96.4980   18.9230 N.3   109  GLU109     -0.1245
     85  CA        13.3400   95.5660   19.6180 C.3   109  GLU109      0.1567
     86  C         13.5390   95.6220   21.1250 C.2   109  GLU109      0.2260
     87  O         14.6610   95.7370   21.6220 O.2   109  GLU109     -0.2867
     88  CB        13.5000   94.1490   19.0710 C.3   109  GLU109      0.0388
     89  CG        12.6290   93.8850   17.8580 C.3   109  GLU109      0.1160
     90  CD        12.7020   92.4380   17.3630 C.2   109  GLU109      0.3649
     91  OE1       12.2200   91.5230   18.0760 O.co2 109  GLU109     -0.2457
     92  OE2       13.2220   92.2190   16.2530 O.co2 109  GLU109     -0.2457
@<TRIPOS>BOND
     1    31    29    1
     2    29    30    1
     3    29    28    2
     4    28    27    1
     5    27    26    1
     6    25    26    1
     7    25    22    1
     8    21    22    1
     9    22    23    1
    10    15    14    2
    11    17    16    1
    12    17    18    1
    13    41    40    2
    14    23    24    2
    15    23    32   am
    16    13    16    1
    17    13    14    1
    18    13    12    1
    19    39    40    1
    20    39    38    1
    21    20    18   ar
    22    18    19   ar
    23    32    33    1
    24    35    34    2
    25    11     9    1
    26    33    34    1
    27    33    36    1
    28     9     8    2
    29     9    10    1
    30     8     7    1
    31    36    37    1
    32     4     3    2
    33     6     7    1
    34     6     5    1
    35     3     2    1
    36    48    42    1
    37    48    47    1
    38    82    81    1
    39    83    81    1
    40    42    43    1
    41    47    46    1
    42     5     2    1
    43     2     1    1
    44    81    80    1
    45    80    77    1
    46    69    67   ar
    47    46    43    1
    48    92    90   ar
    49    43    44    1
    50    45    44    2
    51    67    66    1
    52    67    68   ar
    53    77    78    1
    54    77    76    1
    55    90    89    1
    56    90    91   ar
    57    66    63    1
    58    89    88    1
    59    78    79    2
    60    74    71    1
    61    74    75    1
    62    73    72    2
    63    71    72    1
    64    71    70    1
    65    84    85    1
    66    65    64    2
    67    88    85    1
    68    63    62    1
    69    63    64    1
    70    85    86    1
    71    62    56   am
    72    56    57    2
    73    56    55    1
    74    55    58    1
    75    55    54    1
    76    86    87    2
    77    52    51    2
    78    58    59    1
    79    54    51   am
    80    51    50    1
    81    53    50    1
    82    50    49    1
    83    60    59    2
    84    59    61   am
