@<TRIPOS>MOLECULE
tmp/3bo9B00.pdb
 97 92 0 0 0
SMALL
GASTEIGER

@<TRIPOS>ATOM
      1  N         25.9200   43.0190   68.5760 N.3   200  VAL200     -0.1245
      2  CA        26.6720   44.2890   68.5340 C.3   200  VAL200      0.1561
      3  C         26.3610   45.1060   67.2500 C.2   200  VAL200      0.2260
      4  O         26.3160   46.3340   67.2810 O.2   200  VAL200     -0.2867
      5  CB        28.1890   44.0480   68.7110 C.3   200  VAL200      0.0252
      6  CG1       29.0020   45.3190   68.4640 C.3   200  VAL200      0.0019
      7  CG2       28.4400   43.5060   70.1050 C.3   200  VAL200      0.0019
      8  N         23.0820   46.7620   67.9880 N.3   203  GLU203     -0.1231
      9  CA        23.2770   47.8130   68.9760 C.3   203  GLU203      0.1699
     10  C         23.8340   49.0460   68.3040 C.2   203  GLU203      0.2592
     11  O         23.4060   50.1700   68.5950 O.2   203  GLU203     -0.2718
     12  CB        24.2270   47.3650   70.0940 C.3   203  GLU203      0.0402
     13  CG        24.5580   48.4430   71.1160 C.3   203  GLU203      0.1161
     14  CD        25.4070   47.9330   72.2780 C.2   203  GLU203      0.3649
     15  OE1       25.6160   46.7030   72.3870 O.co2 203  GLU203     -0.2457
     16  OE2       25.8600   48.7740   73.0880 O.co2 203  GLU203     -0.2457
     17  N         24.7930   48.8380   67.4080 N.am  204  LYS204     -0.1980
     18  CA        25.4340   49.9520   66.7400 C.3   204  LYS204      0.1596
     19  C         24.4810   50.7100   65.8100 C.2   204  LYS204      0.2287
     20  O         24.4940   51.9520   65.7810 O.2   204  LYS204     -0.2864
     21  CB        26.6800   49.4840   66.0030 C.3   204  LYS204      0.0298
     22  CG        27.8580   49.2200   66.9160 C.3   204  LYS204      0.0038
     23  CD        28.2270   50.4640   67.7020 C.3   204  LYS204      0.0206
     24  CE        29.6280   50.3730   68.2520 C.3   204  LYS204      0.1093
     25  NZ        29.9550   51.5490   69.1050 N.3   204  LYS204     -0.1314
     26  N         22.2650   52.7760   68.1530 N.3   207  LYS207     -0.1231
     27  CA        22.9840   53.8900   68.7800 C.3   207  LYS207      0.1693
     28  C         23.6160   54.9010   67.8060 C.2   207  LYS207      0.2591
     29  O         23.9960   55.9840   68.2190 O.2   207  LYS207     -0.2718
     30  CB        24.0540   53.3530   69.7500 C.3   207  LYS207      0.0285
     31  CG        23.4620   52.7100   71.0040 C.3   207  LYS207      0.0035
     32  CD        24.4860   52.2980   72.0240 C.3   207  LYS207      0.0206
     33  CE        23.8070   51.9240   73.3340 C.3   207  LYS207      0.1093
     34  NZ        24.6780   51.0930   74.2330 N.3   207  LYS207     -0.1314
     35  N         23.7210   54.5550   66.5300 N.am  208  ALA208     -0.1980
     36  CA        24.3550   55.4230   65.5490 C.3   208  ALA208      0.1597
     37  C         23.4730   56.6100   65.1670 C.2   208  ALA208      0.2287
     38  O         22.2490   56.4830   65.0350 O.2   208  ALA208     -0.2864
     39  CB        24.7150   54.6350   64.3040 C.3   208  ALA208      0.0319
     40  N         27.2370   58.8920   61.8380 N.3   212  ASP212     -0.1239
     41  CA        28.1840   57.8440   62.2660 C.3   212  ASP212      0.1674
     42  C         28.6010   56.8430   61.1530 C.2   212  ASP212      0.2266
     43  O         28.9130   55.6940   61.4400 O.2   212  ASP212     -0.2867
     44  CB        27.6270   57.0760   63.4910 C.3   212  ASP212      0.1410
     45  CG        27.7510   57.8560   64.8120 C.2   212  ASP212      0.3668
     46  OD1       28.7860   58.5110   65.0340 O.co2 212  ASP212     -0.2456
     47  OD2       26.8230   57.7830   65.6530 O.co2 212  ASP212     -0.2456
     48  N         30.0800   51.7070   59.2730 N.3   227  LEU227     -0.1231
     49  CA        29.9630   52.3820   60.5580 C.3   227  LEU227      0.1693
     50  C         31.2950   53.0430   60.8540 C.2   227  LEU227      0.2592
     51  O         32.3390   52.4620   60.5990 O.2   227  LEU227     -0.2718
     52  CB        29.6310   51.3760   61.6540 C.3   227  LEU227      0.0284
     53  CG        29.2190   51.9480   62.9980 C.3   227  LEU227      0.0019
     54  CD1       27.8060   52.5090   62.8830 C.3   227  LEU227      0.0001
     55  CD2       29.3130   50.8610   64.0640 C.3   227  LEU227      0.0001
     56  N         31.2580   54.2510   61.3940 N.am  228  ARG228     -0.1966
     57  CA        32.4860   54.9890   61.6770 C.3   228  ARG228      0.1729
     58  C         33.1730   54.5070   62.9590 C.2   228  ARG228      0.2617
     59  O         32.9570   55.0460   64.0380 O.2   228  ARG228     -0.2715
     60  CB        32.2180   56.4950   61.7490 C.3   228  ARG228      0.0348
     61  CG        33.5020   57.2970   61.9040 C.3   228  ARG228      0.0492
     62  CD        33.3130   58.8000   61.6630 C.3   228  ARG228      0.2205
     63  NE        32.1100   59.3180   62.3040 N.pl3 228  ARG228     -0.0865
     64  CZ        31.9350   59.4330   63.6230 C.cat 228  ARG228      0.5346
     65  NH1       32.8760   59.0490   64.4870 N.pl3 228  ARG228      0.1354
     66  NH2       30.7920   59.9360   64.0900 N.pl3 228  ARG228      0.1354
     67  N         34.0120   53.4900   62.8250 N.am  229  THR229     -0.1937
     68  CA        34.7530   52.9470   63.9580 C.3   229  THR229      0.2013
     69  C         36.2070   53.3660   63.8090 C.2   229  THR229      0.2484
     70  O         36.6110   53.7900   62.7370 O.2   229  THR229     -0.2729
     71  CB        34.6510   51.3970   64.0220 C.3   229  THR229      0.1807
     72  OG1       35.3140   50.8070   62.9000 O.3   229  THR229     -0.2208
     73  CG2       33.2050   50.9520   64.0230 C.3   229  THR229      0.0379
     74  N         36.9930   53.2940   64.8920 N.am  230  PRO230     -0.2726
     75  CA        38.4300   53.5450   64.7900 C.3   230  PRO230      0.1402
     76  C         39.1140   52.7120   63.6940 C.2   230  PRO230      0.2269
     77  O         40.0410   53.1920   63.0230 O.2   230  PRO230     -0.2865
     78  CB        38.9400   53.1240   66.1660 C.3   230  PRO230      0.0296
     79  CG        37.8140   53.4210   67.0600 C.3   230  PRO230      0.0237
     80  CD        36.5930   53.0460   66.2860 C.3   230  PRO230      0.0939
     81  N         34.4340   44.7290   66.5560 N.3   260  LEU260     -0.1231
     82  CA        34.5280   46.1850   66.3570 C.3   260  LEU260      0.1693
     83  C         35.9460   46.6720   66.0130 C.2   260  LEU260      0.2591
     84  O         36.1300   47.6940   65.3300 O.2   260  LEU260     -0.2718
     85  CB        33.9850   46.9200   67.6000 C.3   260  LEU260      0.0284
     86  CG        32.4540   46.9250   67.7610 C.3   260  LEU260      0.0019
     87  CD1       32.0360   47.3800   69.1350 C.3   260  LEU260      0.0001
     88  CD2       31.8070   47.8040   66.7070 C.3   260  LEU260      0.0001
     89  N         36.9420   45.9260   66.4650 N.am  261  GLU261     -0.1979
     90  CA        38.3250   46.2930   66.2400 C.3   261  GLU261      0.1602
     91  C         38.8100   45.8690   64.8410 C.2   261  GLU261      0.2287
     92  O         39.8290   46.3720   64.3650 O.2   261  GLU261     -0.2864
     93  CB        39.2060   45.7010   67.3530 C.3   261  GLU261      0.0415
     94  CG        38.7520   46.0400   68.7760 C.3   261  GLU261      0.1163
     95  CD        38.8750   47.5180   69.1120 C.2   261  GLU261      0.3649
     96  OE1       39.9990   47.9590   69.4370 O.co2 261  GLU261     -0.2457
     97  OE2       37.8500   48.2380   69.0560 O.co2 261  GLU261     -0.2457
@<TRIPOS>BOND
     1    48    49    1
     2    49    50    1
     3    49    52    1
     4    51    50    2
     5    50    56   am
     6    42    43    2
     7    42    41    1
     8    56    57    1
     9    52    53    1
    10    62    61    1
    11    62    63    1
    12    57    60    1
    13    57    58    1
    14    60    61    1
    15    40    41    1
    16    41    44    1
    17    63    64    2
    18    70    69    2
    19    67    58   am
    20    67    68    1
    21    54    53    1
    22    72    71    1
    23    58    59    2
    24    53    55    1
    25    77    76    2
    26    44    45    1
    27    64    66    1
    28    64    65    1
    29    76    75    1
    30    69    68    1
    31    69    74   am
    32    68    71    1
    33    71    73    1
    34    39    36    1
    35    92    91    2
    36    75    74    1
    37    75    78    1
    38    45    46   ar
    39    45    47   ar
    40    91    90    1
    41    74    80    1
    42    38    37    2
    43    37    36    1
    44    84    83    2
    45    36    35    1
    46    20    19    2
    47    19    18    1
    48    21    18    1
    49    21    22    1
    50    83    82    1
    51    83    89   am
    52    78    79    1
    53    90    89    1
    54    90    93    1
    55    80    79    1
    56    82    81    1
    57    82    85    1
    58    35    28   am
    59    88    86    1
    60    18    17    1
    61    22    23    1
    62     3     4    2
    63     3     2    1
    64    93    94    1
    65    17    10   am
    66    85    86    1
    67    23    24    1
    68    86    87    1
    69    28    29    2
    70    28    27    1
    71     8     9    1
    72    26    27    1
    73    24    25    1
    74    10    11    2
    75    10     9    1
    76     6     5    1
    77     2     1    1
    78     2     5    1
    79     5     7    1
    80    94    95    1
    81    27    30    1
    82     9    12    1
    83    97    95   ar
    84    95    96   ar
    85    30    31    1
    86    12    13    1
    87    31    32    1
    88    13    14    1
    89    32    33    1
    90    14    15   ar
    91    14    16   ar
    92    33    34    1
