@<TRIPOS>MOLECULE
tmp/3bofA00.pdb
 100 95 0 0 0
SMALL
GASTEIGER

@<TRIPOS>ATOM
      1  N        -26.8180   25.5970  130.6980 N.3    20  GLY20      -0.1210
      2  CA       -27.5480   26.6470  129.9800 C.3    20  GLY20       0.1956
      3  C        -27.0590   28.0310  130.3700 C.2    20  GLY20       0.2612
      4  O        -25.9030   28.2480  130.7390 O.2    20  GLY20      -0.2717
      5  N        -27.9680   28.9710  130.3020 N.am   21  ALA21      -0.1965
      6  CA       -27.6160   30.3710  130.6380 C.3    21  ALA21       0.1728
      7  C        -27.6600   30.6880  132.1110 C.2    21  ALA21       0.2616
      8  O        -28.4040   30.0750  132.9050 O.2    21  ALA21      -0.2715
      9  CB       -28.5830   31.2980  129.9240 C.3    21  ALA21       0.0334
     10  N        -26.8930   31.7280  132.4860 N.am   22  TYR22      -0.1960
     11  CA       -26.9000   32.2290  133.8410 C.3    22  TYR22       0.1771
     12  C        -27.5370   33.6310  133.9030 C.2    22  TYR22       0.2620
     13  O        -28.4600   33.8520  134.6930 O.2    22  TYR22      -0.2715
     14  CB       -25.4680   32.2580  134.3810 C.3    22  TYR22       0.0574
     15  CG       -25.0570   30.8420  134.6940 C.ar   22  TYR22      -0.0198
     16  CD1      -24.5890   30.0370  133.6760 C.ar   22  TYR22      -0.0009
     17  CD2      -25.2290   30.3200  135.9780 C.ar   22  TYR22      -0.0009
     18  CE1      -24.2370   28.6990  133.9340 C.ar   22  TYR22       0.0417
     19  CE2      -24.8980   28.9880  136.2600 C.ar   22  TYR22       0.0417
     20  CZ       -24.4090   28.2070  135.2260 C.ar   22  TYR22       0.1957
     21  OH       -24.0710   26.8900  135.5110 O.3    22  TYR22      -0.2866
     22  N        -27.0400   34.5400  133.0720 N.am   23  GLY23      -0.1940
     23  CA       -27.5490   35.9360  133.0590 C.3    23  GLY23       0.2014
     24  C        -29.0610   35.9760  132.8830 C.2    23  GLY23       0.2639
     25  O        -29.7690   36.6580  133.6440 O.2    23  GLY23      -0.2714
     26  N        -29.5620   35.2070  131.9250 N.am   24  THR24      -0.1950
     27  CA       -31.0170   35.1460  131.6780 C.3    24  THR24       0.1897
     28  C        -31.7990   34.3080  132.7120 C.2    24  THR24       0.2313
     29  O        -33.0630   34.3480  132.7400 O.2    24  THR24      -0.2863
     30  CB       -31.3340   34.7070  130.2280 C.3    24  THR24       0.1794
     31  OG1      -30.7540   33.4050  129.9670 O.3    24  THR24      -0.2208
     32  CG2      -30.8010   35.6950  129.2330 C.3    24  THR24       0.0378
     33  N        -24.6510   39.8200  137.2730 N.3    35  PRO35      -0.2116
     34  CA       -24.4770   38.4250  137.7000 C.3    35  PRO35       0.1372
     35  C        -23.2550   38.2220  138.5860 C.2    35  PRO35       0.2244
     36  O        -23.3240   37.5140  139.5700 O.2    35  PRO35      -0.2868
     37  CB       -24.3240   37.6670  136.3760 C.3    35  PRO35       0.0268
     38  CG       -25.1400   38.4720  135.3990 C.3    35  PRO35       0.0207
     39  CD       -24.8710   39.9220  135.8170 C.3    35  PRO35       0.0892
     40  N        -20.2230   26.2290  133.9530 N.3    62  LEU62      -0.1245
     41  CA       -19.3960   27.4140  133.8260 C.3    62  LEU62       0.1561
     42  C        -19.4460   28.2150  135.1060 C.2    62  LEU62       0.2260
     43  O        -20.5100   28.3730  135.6940 O.2    62  LEU62      -0.2867
     44  CB       -20.0180   28.3130  132.7480 C.3    62  LEU62       0.0270
     45  CG       -20.1600   27.7320  131.3530 C.3    62  LEU62       0.0019
     46  CD1      -20.7720   28.8680  130.4500 C.3    62  LEU62       0.0001
     47  CD2      -18.8430   27.2360  130.8050 C.3    62  LEU62       0.0001
     48  N        -18.5110   35.5920  133.8100 N.3    66  PHE66      -0.1241
     49  CA       -18.4680   36.0530  132.4380 C.3    66  PHE66       0.1605
     50  C        -17.9290   37.4950  132.3740 C.2    66  PHE66       0.2264
     51  O        -17.0920   37.8110  131.5180 O.2    66  PHE66      -0.2867
     52  CB       -19.8950   36.0150  131.8690 C.3    66  PHE66       0.0534
     53  CG       -19.9730   36.4580  130.4690 C.ar   66  PHE66      -0.0203
     54  CD1      -20.5180   37.7160  130.1460 C.ar   66  PHE66      -0.0042
     55  CD2      -19.4760   35.6620  129.4480 C.ar   66  PHE66      -0.0042
     56  CE1      -20.5750   38.1300  128.8070 C.ar   66  PHE66      -0.0003
     57  CE2      -19.5240   36.0580  128.1200 C.ar   66  PHE66      -0.0003
     58  CZ       -20.0550   37.3160  127.7830 C.ar   66  PHE66      -0.0000
     59  N        -15.1780   30.6900  133.3470 N.3   105  ASP105     -0.1239
     60  CA       -15.8250   31.3620  132.2260 C.3   105  ASP105      0.1674
     61  C        -15.3820   32.8270  132.1520 C.2   105  ASP105      0.2266
     62  O        -15.5300   33.5560  133.1140 O.2   105  ASP105     -0.2867
     63  CB       -17.3490   31.3010  132.4850 C.3   105  ASP105      0.1410
     64  CG       -18.1620   31.8930  131.3770 C.2   105  ASP105      0.3668
     65  OD1      -17.7970   31.7680  130.1870 O.co2 105  ASP105     -0.2456
     66  OD2      -19.2350   32.4510  131.7150 O.co2 105  ASP105     -0.2456
     67  N        -15.7490   32.9640  126.3090 N.3   146  GLU146     -0.1231
     68  CA       -17.0560   32.9680  125.6240 C.3   146  GLU146      0.1699
     69  C        -17.3860   34.2930  124.9700 C.2   146  GLU146      0.2592
     70  O        -17.0160   35.3070  125.5230 O.2   146  GLU146     -0.2718
     71  CB       -18.1600   32.7310  126.6400 C.3   146  GLU146      0.0402
     72  CG       -18.4000   31.2430  126.9860 C.3   146  GLU146      0.1161
     73  CD       -19.6740   31.1060  127.7860 C.2   146  GLU146      0.3649
     74  OE1      -19.8090   31.8140  128.7830 O.co2 146  GLU146     -0.2457
     75  OE2      -20.5440   30.2920  127.3890 O.co2 146  GLU146     -0.2457
     76  N        -18.0310   34.2510  123.7950 N.am  147  THR147     -0.1953
     77  CA       -18.7490   35.4120  123.2830 C.3   147  THR147      0.1897
     78  C        -17.7670   36.5140  122.8510 C.2   147  THR147      0.2313
     79  O        -18.1130   37.7160  122.8490 O.2   147  THR147     -0.2863
     80  CB       -19.7240   36.0190  124.3260 C.3   147  THR147      0.1794
     81  OG1      -20.2800   35.0300  125.1760 O.3   147  THR147     -0.2208
     82  CG2      -20.8950   36.7070  123.6060 C.3   147  THR147      0.0378
     83  N        -23.7520   32.0250  121.5630 N.3   207  CYS207     -0.1235
     84  CA       -24.5660   33.2530  121.5930 C.3   207  CYS207      0.1677
     85  C        -24.8730   33.8350  120.2290 C.2   207  CYS207      0.2270
     86  O        -24.5340   33.2820  119.1690 O.2   207  CYS207     -0.2867
     87  CB       -23.9080   34.3160  122.5360 C.3   207  CYS207      0.0956
     88  SG       -25.1200   35.4030  123.3800 S.3   207  CYS207     -0.0801
     89  N        -26.5200   28.9960  125.3840 N.3   272  CYS272     -0.1221
     90  CA       -26.1940   30.3310  125.9180 C.3   272  CYS272      0.1808
     91  C        -27.4990   31.0430  126.3400 C.2   272  CYS272      0.2601
     92  O        -28.5060   30.3770  126.6100 O.2   272  CYS272     -0.2717
     93  CB       -25.3930   31.1100  124.8750 C.3   272  CYS272      0.0970
     94  SG       -24.3360   32.3530  125.7300 S.3   272  CYS272     -0.0800
     95  N        -27.4930   32.3630  126.4250 N.am  273  CYS273     -0.1970
     96  CA       -28.6530   33.1490  126.8120 C.3   273  CYS273      0.1712
     97  C        -29.9350   32.5500  126.2450 C.2   273  CYS273      0.2296
     98  O        -30.0020   32.2270  125.0580 O.2   273  CYS273     -0.2864
     99  CB       -28.4870   34.5800  126.2850 C.3   273  CYS273      0.0983
    100  SG       -26.8560   35.2800  126.8070 S.3   273  CYS273     -0.0798
@<TRIPOS>BOND
     1    86    85    2
     2    85    84    1
     3    83    84    1
     4    84    87    1
     5    87    88    1
     6    79    78    2
     7    78    77    1
     8    77    76    1
     9    77    80    1
    10    82    80    1
    11    76    69   am
    12    80    81    1
    13    93    94    1
    14    93    90    1
    15    69    70    2
    16    69    68    1
    17    98    97    2
    18    89    90    1
    19    68    67    1
    20    68    71    1
    21    90    91    1
    22    97    96    1
    23    99   100    1
    24    99    96    1
    25    91    95   am
    26    91    92    2
    27    95    96    1
    28    71    72    1
    29    72    73    1
    30    75    73   ar
    31    58    57   ar
    32    58    56   ar
    33    73    74   ar
    34    57    55   ar
    35    56    54   ar
    36    32    30    1
    37    55    53   ar
    38     9     6    1
    39    31    30    1
    40     2     3    1
    41     2     1    1
    42    54    53   ar
    43    65    64   ar
    44    30    27    1
    45     5     3   am
    46     5     6    1
    47     3     4    2
    48    46    45    1
    49    53    52    1
    50     6     7    1
    51    47    45    1
    52    45    44    1
    53    64    66   ar
    54    64    63    1
    55    51    50    2
    56    27    26    1
    57    27    28    1
    58    52    49    1
    59    26    24   am
    60     7    10   am
    61     7     8    2
    62    61    60    1
    63    61    62    2
    64    60    63    1
    65    60    59    1
    66    50    49    1
    67    49    48    1
    68    10    11    1
    69    28    29    2
    70    44    41    1
    71    24    23    1
    72    24    25    2
    73    23    22    1
    74    22    12   am
    75    16    18   ar
    76    16    15   ar
    77    41    40    1
    78    41    42    1
    79    11    12    1
    80    11    14    1
    81    12    13    2
    82    18    20   ar
    83    14    15    1
    84    15    17   ar
    85    42    43    2
    86    20    21    1
    87    20    19   ar
    88    38    39    1
    89    38    37    1
    90    39    33    1
    91    17    19   ar
    92    37    34    1
    93    33    34    1
    94    34    35    1
    95    35    36    2
