@<TRIPOS>MOLECULE
tmp/3bomD00.pdb
 241 228 0 0 0
SMALL
GASTEIGER

@<TRIPOS>ATOM
      1  N         30.9200   22.2650   11.7090 N.3    28  LEU28      -0.1245
      2  CA        31.6230   21.3050   12.5460 C.3    28  LEU28       0.1561
      3  C         32.0680   21.9470   13.8520 C.2    28  LEU28       0.2260
      4  O         31.8930   21.3730   14.9190 O.2    28  LEU28      -0.2867
      5  CB        32.8130   20.6780   11.8030 C.3    28  LEU28       0.0270
      6  CG        33.5090   19.5400   12.5530 C.3    28  LEU28       0.0019
      7  CD1       32.5270   18.4150   12.8840 C.3    28  LEU28       0.0001
      8  CD2       34.7130   19.0130   11.7720 C.3    28  LEU28       0.0001
      9  N         28.9870   22.1480   16.0010 N.3    31  LEU31      -0.1245
     10  CA        28.6700   20.8400   16.5790 C.3    31  LEU31       0.1561
     11  C         29.4910   20.5570   17.8320 C.2    31  LEU31       0.2260
     12  O         28.9510   20.1460   18.8590 O.2    31  LEU31      -0.2867
     13  CB        28.9030   19.7300   15.5510 C.3    31  LEU31       0.0270
     14  CG        28.6390   18.3050   16.0580 C.3    31  LEU31       0.0019
     15  CD1       27.1510   18.0130   16.2200 C.3    31  LEU31       0.0001
     16  CD2       29.3040   17.2620   15.1780 C.3    31  LEU31       0.0001
     17  N         30.6910   15.1660   21.1470 N.3    38  THR38      -0.1218
     18  CA        31.2780   14.8690   19.8400 C.3    38  THR38       0.1862
     19  C         32.7960   15.0840   19.8330 C.2    38  THR38       0.2287
     20  O         33.4780   14.5610   18.9720 O.2    38  THR38      -0.2866
     21  CB        30.6240   15.6910   18.7030 C.3    38  THR38       0.1770
     22  OG1       30.7270   17.0900   18.9970 O.3    38  THR38      -0.2211
     23  CG2       29.1540   15.3030   18.5400 C.3    38  THR38       0.0375
     24  N         35.8290   12.4400   19.3910 N.3    41  HIS41      -0.1226
     25  CA        36.3650   11.9770   18.1090 C.3    41  HIS41       0.1752
     26  C         37.4860   12.8290   17.5240 C.2    41  HIS41       0.2596
     27  O         38.0940   12.4550   16.5240 O.2    41  HIS41      -0.2718
     28  CB        35.2180   11.8480   17.1160 C.3    41  HIS41       0.0759
     29  CG        34.2060   10.8430   17.5440 C.ar   41  HIS41       0.0818
     30  ND1       34.4720    9.4920   17.5650 N.ar   41  HIS41      -0.2268
     31  CD2       32.9510   10.9900   18.0270 C.ar   41  HIS41       0.1154
     32  CE1       33.4130    8.8470   18.0210 C.ar   41  HIS41       0.1986
     33  NE2       32.4780    9.7330   18.3100 N.ar   41  HIS41      -0.2212
     34  N         37.7660   13.9510   18.1680 N.am   42  PHE42      -0.1976
     35  CA        38.6500   14.9590   17.5860 C.3    42  PHE42       0.1639
     36  C         39.7550   15.4100   18.5320 C.2    42  PHE42       0.2290
     37  O         40.3700   16.4500   18.3140 O.2    42  PHE42      -0.2864
     38  CB        37.8240   16.1580   17.0890 C.3    42  PHE42       0.0560
     39  CG        36.8880   15.8120   15.9680 C.ar   42  PHE42      -0.0200
     40  CD1       37.3630   15.6840   14.6700 C.ar   42  PHE42      -0.0042
     41  CD2       35.5380   15.5800   16.2150 C.ar   42  PHE42      -0.0042
     42  CE1       36.5070   15.3460   13.6300 C.ar   42  PHE42      -0.0003
     43  CE2       34.6770   15.2340   15.1900 C.ar   42  PHE42      -0.0003
     44  CZ        35.1580   15.1160   13.8920 C.ar   42  PHE42      -0.0000
     45  N         42.6630   14.4470   18.9010 N.3    44  THR44      -0.1203
     46  CA        43.9530   14.4750   18.2030 C.3    44  THR44       0.1994
     47  C         44.0810   15.6660   17.2460 C.2    44  THR44       0.2617
     48  O         45.1200   15.8400   16.5930 O.2    44  THR44      -0.2717
     49  CB        44.1620   13.1780   17.3960 C.3    44  THR44       0.1784
     50  OG1       42.9110   12.7830   16.8160 O.3    44  THR44      -0.2211
     51  CG2       44.6780   12.0510   18.2940 C.3    44  THR44       0.0376
     52  N         43.0360   16.4880   17.1730 N.am   45  PHE45      -0.1975
     53  CA        42.9780   17.5960   16.2080 C.3    45  PHE45       0.1639
     54  C         43.5650   18.9050   16.7450 C.2    45  PHE45       0.2290
     55  O         43.3720   19.9720   16.1570 O.2    45  PHE45      -0.2864
     56  CB        41.5380   17.7880   15.6960 C.3    45  PHE45       0.0560
     57  CG        41.1470   16.8260   14.5990 C.ar   45  PHE45      -0.0200
     58  CD1       41.1930   15.4430   14.8020 C.ar   45  PHE45      -0.0042
     59  CD2       40.7150   17.3020   13.3660 C.ar   45  PHE45      -0.0042
     60  CE1       40.8390   14.5580   13.7900 C.ar   45  PHE45      -0.0003
     61  CE2       40.3480   16.4200   12.3450 C.ar   45  PHE45      -0.0003
     62  CZ        40.4110   15.0480   12.5590 C.ar   45  PHE45      -0.0000
     63  N         38.5590   19.5040    8.1900 N.3    63  HIS63      -0.1241
     64  CA        37.6380   18.3850    8.2860 C.3    63  HIS63       0.1621
     65  C         36.1730   18.7460    8.0260 C.2    63  HIS63       0.2264
     66  O         35.4150   17.9270    7.4870 O.2    63  HIS63      -0.2867
     67  CB        37.7640   17.6920    9.6310 C.3    63  HIS63       0.0745
     68  CG        37.0990   16.3590    9.6540 C.ar   63  HIS63       0.0817
     69  ND1       37.5790   15.2840    8.9390 N.ar   63  HIS63      -0.2268
     70  CD2       35.9670   15.9340   10.2620 C.ar   63  HIS63       0.1154
     71  CE1       36.7830   14.2470    9.1220 C.ar   63  HIS63       0.1986
     72  NE2       35.7990   14.6140    9.9220 N.ar   63  HIS63      -0.2212
     73  N         35.7670   18.6340    4.3960 N.3    66  THR66      -0.1203
     74  CA        35.6220   17.2470    3.9690 C.3    66  THR66       0.1994
     75  C         34.1830   16.7270    4.1770 C.2    66  THR66       0.2617
     76  O         33.6160   16.0990    3.2750 O.2    66  THR66      -0.2717
     77  CB        36.6510   16.3570    4.6890 C.3    66  THR66       0.1784
     78  OG1       37.9730   16.7520    4.3020 O.3    66  THR66      -0.2211
     79  CG2       36.4420   14.8840    4.3540 C.3    66  THR66       0.0376
     80  N         33.6070   16.9980    5.3510 N.am   67  VAL67      -0.1979
     81  CA        32.2100   16.6540    5.6600 C.3    67  VAL67       0.1595
     82  C         31.2580   17.2030    4.6100 C.2    67  VAL67       0.2287
     83  O         30.4610   16.4660    4.0350 O.2    67  VAL67      -0.2864
     84  CB        31.7640   17.2110    7.0420 C.3    67  VAL67       0.0276
     85  CG1       30.2360   17.1470    7.1980 C.3    67  VAL67       0.0022
     86  CG2       32.4290   16.4580    8.1710 C.3    67  VAL67       0.0022
     87  N         31.5340   15.8130    1.2610 N.3    70  GLY70      -0.1210
     88  CA        30.8790   14.5070    1.3300 C.3    70  GLY70       0.1956
     89  C         29.4000   14.5450    0.9610 C.2    70  GLY70       0.2611
     90  O         28.8440   13.5320    0.5400 O.2    70  GLY70      -0.2717
     91  N         28.7680   15.7110    1.1130 N.am   71  LEU71      -0.1979
     92  CA        27.3610   15.8890    0.7430 C.3    71  LEU71       0.1596
     93  C         27.1700   16.1860   -0.7430 C.2    71  LEU71       0.2287
     94  O         26.0530   16.0970   -1.2570 O.2    71  LEU71      -0.2864
     95  CB        26.6900   16.9850    1.5870 C.3    71  LEU71       0.0297
     96  CG        26.2420   16.7000    3.0250 C.3    71  LEU71       0.0022
     97  CD1       25.7080   15.2930    3.1550 C.3    71  LEU71       0.0001
     98  CD2       27.3680   16.9380    4.0140 C.3    71  LEU71       0.0001
     99  N         28.0850   14.5060   -3.4810 N.3    73  ARG73      -0.1245
    100  CA        27.5890   13.3960   -4.3050 C.3    73  ARG73       0.1563
    101  C         26.1580   13.0250   -4.0120 C.2    73  ARG73       0.2260
    102  O         25.4980   12.4320   -4.8660 O.2    73  ARG73      -0.2867
    103  CB        28.4780   12.1500   -4.2810 C.3    73  ARG73       0.0307
    104  CG        29.4520   12.0690   -3.1570 C.3    73  ARG73       0.0489
    105  CD        30.4870   10.9760   -3.4380 C.3    73  ARG73       0.2205
    106  NE        30.3890    9.9090   -2.4460 N.pl3  73  ARG73      -0.0865
    107  CZ        30.8590   10.0150   -1.2060 C.cat  73  ARG73       0.5346
    108  NH1       31.4600   11.1360   -0.8190 N.pl3  73  ARG73       0.1354
    109  NH2       30.7280    9.0070   -0.3580 N.pl3  73  ARG73       0.1354
    110  N         26.5870    6.2860    0.3960 N.3    85  TYR85      -0.1241
    111  CA        27.2390    6.3740    1.7030 C.3    85  TYR85       0.1605
    112  C         27.6140    5.0590    2.3820 C.2    85  TYR85       0.2264
    113  O         28.0140    5.0500    3.5520 O.2    85  TYR85      -0.2867
    114  CB        26.3920    7.2370    2.6430 C.3    85  TYR85       0.0534
    115  CG        26.4180    8.6780    2.2290 C.ar   85  TYR85      -0.0201
    116  CD1       25.3120    9.2670    1.6220 C.ar   85  TYR85      -0.0009
    117  CD2       27.5720    9.4450    2.3930 C.ar   85  TYR85      -0.0009
    118  CE1       25.3410   10.5870    1.2290 C.ar   85  TYR85       0.0417
    119  CE2       27.6170   10.7620    1.9880 C.ar   85  TYR85       0.0417
    120  CZ        26.4970   11.3260    1.4150 C.ar   85  TYR85       0.1957
    121  OH        26.5310   12.6330    1.0180 O.3    85  TYR85      -0.2866
    122  N         31.2430    5.0100    3.6320 N.3    88  LEU88      -0.1245
    123  CA        31.3880    6.0060    4.6840 C.3    88  LEU88       0.1561
    124  C         30.6940    5.5670    5.9640 C.2    88  LEU88       0.2260
    125  O         31.2110    5.7870    7.0710 O.2    88  LEU88      -0.2867
    126  CB        30.8390    7.3450    4.2260 C.3    88  LEU88       0.0270
    127  CG        31.8250    8.2120    3.4620 C.3    88  LEU88       0.0019
    128  CD1       31.1230    9.4690    3.0090 C.3    88  LEU88       0.0001
    129  CD2       33.0080    8.5590    4.3520 C.3    88  LEU88       0.0001
    130  N         32.7590    2.8910    7.7910 N.3    91  MET91      -0.1230
    131  CA        33.9310    3.5220    8.3630 C.3    91  MET91       0.1702
    132  C         33.5880    4.2090    9.6960 C.2    91  MET91       0.2592
    133  O         34.2930    4.0410   10.6950 O.2    91  MET91      -0.2718
    134  CB        34.5490    4.5220    7.3860 C.3    91  MET91       0.0401
    135  CG        35.7840    5.2020    7.9410 C.3    91  MET91       0.0596
    136  SD        36.2400    6.6370    6.9580 S.3    91  MET91      -0.1393
    137  CE        34.9780    7.8020    7.4330 C.3    91  MET91       0.0692
    138  N         32.5000    4.9700    9.6980 N.am   92  HIS92      -0.1976
    139  CA        32.1180    5.7010   10.8950 C.3    92  HIS92       0.1656
    140  C         31.6770    4.7570   12.0020 C.2    92  HIS92       0.2291
    141  O         31.8930    5.0390   13.1790 O.2    92  HIS92      -0.2864
    142  CB        31.0230    6.7020   10.5710 C.3    92  HIS92       0.0771
    143  CG        31.5290    7.9380    9.9000 C.ar   92  HIS92       0.0820
    144  ND1       31.8100    7.9920    8.5510 N.ar   92  HIS92      -0.2267
    145  CD2       31.8370    9.1600   10.3970 C.ar   92  HIS92       0.1154
    146  CE1       32.2350    9.2030    8.2400 C.ar   92  HIS92       0.1986
    147  NE2       32.2610    9.9320    9.3410 N.ar   92  HIS92      -0.2212
    148  N         35.2970    1.6570   12.2290 N.3    95  LYS95      -0.1231
    149  CA        36.6240    2.2310   12.4520 C.3    95  LYS95       0.1693
    150  C         36.6000    3.3550   13.4890 C.2    95  LYS95       0.2591
    151  O         37.4200    3.3840   14.4030 O.2    95  LYS95      -0.2718
    152  CB        37.2490    2.7250   11.1450 C.3    95  LYS95       0.0285
    153  CG        38.6320    3.3330   11.3430 C.3    95  LYS95       0.0035
    154  CD        39.1370    4.0480   10.1020 C.3    95  LYS95       0.0206
    155  CE        40.4620    4.7550   10.3810 C.3    95  LYS95       0.1093
    156  NZ        41.5440    3.8030   10.7520 N.3    95  LYS95      -0.1314
    157  N         35.6460    4.2680   13.3530 N.am   96  LEU96      -0.1980
    158  CA        35.6580    5.4920   14.1450 C.3    96  LEU96       0.1596
    159  C         34.7460    5.4320   15.3680 C.2    96  LEU96       0.2287
    160  O         34.8890    6.2360   16.2890 O.2    96  LEU96      -0.2864
    161  CB        35.2770    6.6890   13.2740 C.3    96  LEU96       0.0297
    162  CG        36.1470    6.8530   12.0230 C.3    96  LEU96       0.0022
    163  CD1       35.4860    7.8210   11.0610 C.3    96  LEU96       0.0001
    164  CD2       37.5770    7.2770   12.3810 C.3    96  LEU96       0.0001
    165  N         31.5740    6.2160   15.7650 N.3    98  VAL98      -0.1245
    166  CA        30.7590    7.4220   15.9330 C.3    98  VAL98       0.1561
    167  C         29.2860    7.0600   16.1330 C.2    98  VAL98       0.2260
    168  O         28.6790    6.3680   15.3190 O.2    98  VAL98      -0.2867
    169  CB        30.8780    8.3470   14.7060 C.3    98  VAL98       0.0252
    170  CG1       29.9260    9.5290   14.8010 C.3    98  VAL98       0.0019
    171  CG2       32.3270    8.8260   14.5310 C.3    98  VAL98       0.0019
    172  N         24.8870   11.5210   16.2200 N.3   102  ASN102     -0.1225
    173  CA        25.6680   12.7230   15.9820 C.3   102  ASN102      0.1785
    174  C         25.5860   13.2180   14.5340 C.2   102  ASN102      0.2597
    175  O         25.8130   14.3970   14.2760 O.2   102  ASN102     -0.2718
    176  CB        27.1230   12.5080   16.4080 C.3   102  ASN102      0.1169
    177  CG        27.2690   12.3540   17.9030 C.2   102  ASN102      0.2627
    178  OD1       26.6230   13.0570   18.6800 O.2   102  ASN102     -0.2716
    179  ND2       28.1500   11.4530   18.3160 N.am  102  ASN102     -0.0877
    180  N         25.2340   12.3400   13.5990 N.am  103  PHE103     -0.1976
    181  CA        24.9630   12.8180   12.2420 C.3   103  PHE103      0.1639
    182  C         23.7550   13.7600   12.1920 C.2   103  PHE103      0.2290
    183  O         23.7720   14.7580   11.4810 O.2   103  PHE103     -0.2864
    184  CB        24.7110   11.6540   11.2870 C.3   103  PHE103      0.0560
    185  CG        25.8420   10.6420   11.2040 C.ar  103  PHE103     -0.0200
    186  CD1       27.1640   11.0450   11.1020 C.ar  103  PHE103     -0.0042
    187  CD2       25.5600    9.2910   11.1420 C.ar  103  PHE103     -0.0042
    188  CE1       28.1900   10.0940   10.9920 C.ar  103  PHE103     -0.0003
    189  CE2       26.5700    8.3400   11.0300 C.ar  103  PHE103     -0.0003
    190  CZ        27.8810    8.7490   10.9680 C.ar  103  PHE103     -0.0000
    191  N         24.8780   17.0680   13.6940 N.3   106  LEU106     -0.1231
    192  CA        25.6790   17.8350   12.7270 C.3   106  LEU106      0.1693
    193  C         24.7860   18.4510   11.6530 C.2   106  LEU106      0.2591
    194  O         24.9490   19.6170   11.2930 O.2   106  LEU106     -0.2718
    195  CB        26.7620   16.9590   12.0910 C.3   106  LEU106      0.0284
    196  CG        27.6190   17.6210   11.0060 C.3   106  LEU106      0.0019
    197  CD1       28.3420   18.8550   11.4900 C.3   106  LEU106      0.0001
    198  CD2       28.6080   16.6020   10.4640 C.3   106  LEU106      0.0001
    199  N         23.8450   17.6650   11.1380 N.am  107  ALA107     -0.1980
    200  CA        22.9310   18.1800   10.1330 C.3   107  ALA107      0.1597
    201  C         22.1800   19.4050   10.6560 C.2   107  ALA107      0.2287
    202  O         22.0220   20.3850    9.9290 O.2   107  ALA107     -0.2864
    203  CB        21.9840   17.0960    9.6680 C.3   107  ALA107      0.0319
    204  N         24.4730   22.2790   10.4090 N.3   110  ILE110     -0.1245
    205  CA        24.5850   22.7140    9.0130 C.3   110  ILE110      0.1561
    206  C         23.3800   23.6120    8.6800 C.2   110  ILE110      0.2260
    207  O         23.5540   24.6910    8.1180 O.2   110  ILE110     -0.2867
    208  CB        24.6820   21.5180    8.0450 C.3   110  ILE110      0.0252
    209  CG1       26.0390   20.8170    8.2040 C.3   110  ILE110      0.0019
    210  CG2       24.4930   21.9830    6.5850 C.3   110  ILE110      0.0019
    211  CD1       26.1400   19.4560    7.5670 C.3   110  ILE110      0.0001
    212  N         18.7250   16.4260    4.2490 N.3   135  LEU135     -0.1245
    213  CA        19.5920   16.0600    5.3740 C.3   135  LEU135      0.1561
    214  C         19.1100   14.7890    6.0670 C.2   135  LEU135      0.2260
    215  O         19.9230   13.9440    6.4640 O.2   135  LEU135     -0.2867
    216  CB        19.6990   17.2030    6.3830 C.3   135  LEU135      0.0270
    217  CG        20.4260   18.4480    5.8790 C.3   135  LEU135      0.0019
    218  CD1       20.1700   19.6030    6.8210 C.3   135  LEU135      0.0001
    219  CD2       21.9130   18.1910    5.7240 C.3   135  LEU135      0.0001
    220  N         20.2330   11.8430    3.9700 N.3   138  VAL138     -0.1231
    221  CA        21.6760   11.6790    4.1690 C.3   138  VAL138      0.1692
    222  C         22.0010   11.0230    5.5090 C.2   138  VAL138      0.2591
    223  O         22.7860   10.0680    5.5760 O.2   138  VAL138     -0.2718
    224  CB        22.4470   13.0200    3.9870 C.3   138  VAL138      0.0266
    225  CG1       23.9090   12.8680    4.3980 C.3   138  VAL138      0.0020
    226  CG2       22.3430   13.5160    2.5320 C.3   138  VAL138      0.0020
    227  N         21.3980   11.5510    6.5660 N.am  139  VAL139     -0.1980
    228  CA        21.6240   11.0150    7.9040 C.3   139  VAL139      0.1595
    229  C         21.2050    9.5390    7.9890 C.2   139  VAL139      0.2287
    230  O         21.9050    8.7230    8.5900 O.2   139  VAL139     -0.2864
    231  CB        20.8880   11.8750    8.9530 C.3   139  VAL139      0.0276
    232  CG1       20.8290   11.1870   10.3270 C.3   139  VAL139      0.0022
    233  CG2       21.5440   13.2510    9.0630 C.3   139  VAL139      0.0022
    234  N         23.9250    7.5380    6.2120 N.3   142  LEU142     -0.1245
    235  CA        25.1470    7.4350    7.0230 C.3   142  LEU142      0.1561
    236  C         25.0470    6.4230    8.1660 C.2   142  LEU142      0.2260
    237  O         26.0520    5.8500    8.5860 O.2   142  LEU142     -0.2867
    238  CB        25.5560    8.8060    7.5400 C.3   142  LEU142      0.0270
    239  CG        26.1280    9.7440    6.4770 C.3   142  LEU142      0.0019
    240  CD1       26.0580   11.1570    7.0000 C.3   142  LEU142      0.0001
    241  CD2       27.5580    9.3570    6.1210 C.3   142  LEU142      0.0001
@<TRIPOS>BOND
     1   102   101    2
     2   100   103    1
     3   100   101    1
     4   100    99    1
     5   103   104    1
     6   105   104    1
     7   105   106    1
     8   106   107    2
     9    94    93    2
    10   107   108    1
    11   107   109    1
    12    93    92    1
    13   110   111    1
    14    90    89    2
    15    92    91    1
    16    92    95    1
    17    89    91   am
    18    89    88    1
    19   121   120    1
    20   118   120   ar
    21   118   116   ar
    22    87    88    1
    23   120   119   ar
    24    95    96    1
    25   116   115   ar
    26   111   112    1
    27   111   114    1
    28   119   117   ar
    29   115   117   ar
    30   115   114    1
    31   112   113    2
    32   226   224    1
    33   128   127    1
    34    96    97    1
    35    96    98    1
    36    76    75    2
    37   127   126    1
    38   127   129    1
    39   122   123    1
    40    74    75    1
    41    74    73    1
    42    74    77    1
    43   220   221    1
    44   224   221    1
    45   224   225    1
    46    83    82    2
    47   221   222    1
    48    75    80   am
    49   126   123    1
    50   212   213    1
    51    78    77    1
    52    79    77    1
    53    82    81    1
    54   123   124    1
    55    80    81    1
    56   213   214    1
    57   213   216    1
    58   222   223    2
    59   222   227   am
    60    81    84    1
    61   219   217    1
    62   217   216    1
    63   217   218    1
    64   124   125    2
    65   214   215    2
    66   241   239    1
    67   234   235    1
    68   239   240    1
    69   239   238    1
    70   227   228    1
    71   210   208    1
    72   136   137    1
    73   136   135    1
    74   235   238    1
    75   235   236    1
    76    84    85    1
    77    84    86    1
    78   134   135    1
    79   134   131    1
    80    66    65    2
    81   211   209    1
    82   130   131    1
    83   228   229    1
    84   228   231    1
    85   229   230    2
    86    65    64    1
    87   208   209    1
    88   208   205    1
    89   207   206    2
    90   236   237    2
    91    63    64    1
    92   146   144   ar
    93   146   147   ar
    94    64    67    1
    95   131   132    1
    96   144   143   ar
    97   206   205    1
    98    69    71   ar
    99    69    68   ar
   100   231   233    1
   101   231   232    1
   102   205   204    1
   103    71    72   ar
   104   147   145   ar
   105    67    68    1
   106    68    70   ar
   107   203   200    1
   108   132   138   am
   109   132   133    2
   110   138   139    1
   111   143   145   ar
   112   143   142    1
   113    72    70   ar
   114   202   201    2
   115   154   155    1
   116   154   153    1
   117   200   201    1
   118   200   199    1
   119   155   156    1
   120   198   196    1
   121   142   139    1
   122   139   140    1
   123   190   188   ar
   124   190   189   ar
   125   188   186   ar
   126   196   197    1
   127   196   195    1
   128   189   187   ar
   129   163   162    1
   130   186   185   ar
   131   199   193   am
   132   187   185   ar
   133   152   153    1
   134   152   149    1
   135   185   184    1
   136   184   181    1
   137   194   193    2
   138   183   182    2
   139   193   192    1
   140     1     2    1
   141     8     6    1
   142     5     2    1
   143     5     6    1
   144   140   141    2
   145   162   164    1
   146   162   161    1
   147   195   192    1
   148   182   181    1
   149   148   149    1
   150   181   180    1
   151    61    62   ar
   152    61    59   ar
   153   149   150    1
   154     2     3    1
   155     6     7    1
   156    62    60   ar
   157   192   191    1
   158   161   158    1
   159   157   150   am
   160   157   158    1
   161    59    57   ar
   162   150   151    2
   163   180   174   am
   164    42    44   ar
   165    42    40   ar
   166    60    58   ar
   167     3     4    2
   168    44    43   ar
   169   158   159    1
   170   175   174    2
   171   171   169    1
   172   174   173    1
   173    57    58   ar
   174    57    56    1
   175    40    39   ar
   176   169   170    1
   177   169   166    1
   178    16    14    1
   179    43    41   ar
   180   168   167    2
   181   159   160    2
   182    13    14    1
   183    13    10    1
   184    56    53    1
   185   165   166    1
   186   166   167    1
   187    39    41   ar
   188    39    38    1
   189   173   172    1
   190   173   176    1
   191     9    10    1
   192    14    15    1
   193    55    54    2
   194    53    54    1
   195    53    52    1
   196   176   177    1
   197    27    26    2
   198    10    11    1
   199    48    47    2
   200    50    49    1
   201    38    35    1
   202    28    29    1
   203    28    25    1
   204    52    47   am
   205    47    46    1
   206    49    46    1
   207    49    51    1
   208    26    25    1
   209    26    34   am
   210    29    30   ar
   211    29    31   ar
   212    30    32   ar
   213    35    34    1
   214    35    36    1
   215    11    12    2
   216   177   179   am
   217   177   178    2
   218    32    33   ar
   219    31    33   ar
   220    25    24    1
   221    46    45    1
   222    37    36    2
   223    23    21    1
   224    21    22    1
   225    21    18    1
   226    20    19    2
   227    19    18    1
   228    18    17    1
