@<TRIPOS>MOLECULE
tmp/3bosB00.pdb
 179 175 0 0 0
SMALL
GASTEIGER

@<TRIPOS>ATOM
      1  N         29.6540   69.3170   31.1860 N.3    14  GLU14      -0.1245
      2  CA        30.0010   70.4210   30.2650 C.3    14  GLU14       0.1567
      3  C         28.7460   70.7950   29.4720 C.2    14  GLU14       0.2260
      4  O         28.4680   70.2580   28.3960 O.2    14  GLU14      -0.2867
      5  CB        31.1770   70.0540   29.3670 C.3    14  GLU14       0.0388
      6  CG        32.4490   69.9400   30.1960 C.3    14  GLU14       0.1160
      7  CD        33.6800   69.6260   29.4060 C.2    14  GLU14       0.3649
      8  OE1       33.7520   69.8800   28.1650 O.co2  14  GLU14      -0.2457
      9  OE2       34.6050   69.1560   30.0810 O.co2  14  GLU14      -0.2457
     10  N         26.6220   74.8580   32.9900 N.3    18  SER18      -0.1202
     11  CA        27.8700   74.7540   33.7630 C.3    18  SER18       0.2020
     12  C         28.9530   75.7180   33.3110 C.2    18  SER18       0.2619
     13  O         29.8340   76.0570   34.0770 O.2    18  SER18      -0.2717
     14  CB        28.4210   73.3270   33.7780 C.3    18  SER18       0.2103
     15  OG        29.0230   72.9810   32.5570 O.3    18  SER18      -0.2182
     16  N         28.8890   76.1430   32.0620 N.am   19  TYR19      -0.1961
     17  CA        29.8530   77.0880   31.5110 C.3    19  TYR19       0.1771
     18  C         29.9920   78.3200   32.4240 C.2    19  TYR19       0.2619
     19  O         29.0000   78.8880   32.8730 O.2    19  TYR19      -0.2715
     20  CB        29.3810   77.5170   30.1420 C.3    19  TYR19       0.0574
     21  CG        30.4420   78.0750   29.2570 C.ar   19  TYR19      -0.0198
     22  CD1       31.4540   77.2520   28.7840 C.ar   19  TYR19      -0.0009
     23  CD2       30.4200   79.3810   28.8480 C.ar   19  TYR19      -0.0009
     24  CE1       32.4200   77.7080   27.9370 C.ar   19  TYR19       0.0417
     25  CE2       31.4100   79.8690   27.9820 C.ar   19  TYR19       0.0417
     26  CZ        32.4030   79.0170   27.5500 C.ar   19  TYR19       0.1957
     27  OH        33.3840   79.4410   26.7040 O.3    19  TYR19      -0.2866
     28  N         31.2150   78.7200   32.7170 N.am   20  TYR20      -0.1974
     29  CA        31.3930   79.9340   33.5230 C.3    20  TYR20       0.1639
     30  C         30.9790   81.1170   32.6720 C.2    20  TYR20       0.2290
     31  O         31.4560   81.2600   31.5610 O.2    20  TYR20      -0.2864
     32  CB        32.8280   80.0980   33.9580 C.3    20  TYR20       0.0560
     33  CG        33.0340   81.3150   34.7790 C.ar   20  TYR20      -0.0198
     34  CD1       32.7010   81.3310   36.1070 C.ar   20  TYR20      -0.0009
     35  CD2       33.5560   82.4670   34.2170 C.ar   20  TYR20      -0.0009
     36  CE1       32.9100   82.4610   36.8880 C.ar   20  TYR20       0.0417
     37  CE2       33.7590   83.6180   34.9770 C.ar   20  TYR20       0.0417
     38  CZ        33.4480   83.5970   36.3110 C.ar   20  TYR20       0.1957
     39  OH        33.6330   84.7090   37.1230 O.3    20  TYR20      -0.2866
     40  N         31.5430   83.9400   31.4470 N.3    22  ALA22      -0.1245
     41  CA        32.4810   84.9640   31.0310 C.3    22  ALA22       0.1562
     42  C         31.7030   85.9840   30.1880 C.2    22  ALA22       0.2260
     43  O         30.8120   85.6020   29.4200 O.2    22  ALA22      -0.2867
     44  CB        33.5860   84.3360   30.1930 C.3    22  ALA22       0.0290
     45  N         43.5190   79.0490   23.2100 N.3    50  VAL50      -0.1231
     46  CA        43.5000   77.8120   23.9480 C.3    50  VAL50       0.1692
     47  C         42.9890   78.0500   25.3760 C.2    50  VAL50       0.2592
     48  O         43.2880   79.0650   26.0200 O.2    50  VAL50      -0.2718
     49  CB        44.8750   77.0880   23.9520 C.3    50  VAL50       0.0266
     50  CG1       45.9260   77.9020   24.6980 C.3    50  VAL50       0.0020
     51  CG2       44.7250   75.6690   24.5120 C.3    50  VAL50       0.0020
     52  N         42.1800   77.1080   25.8210 N.am   51  LYS51      -0.1966
     53  CA        41.5320   77.0820   27.1350 C.3    51  LYS51       0.1728
     54  C         40.3720   78.0680   27.2600 C.2    51  LYS51       0.2617
     55  O         39.8430   78.2600   28.3410 O.2    51  LYS51      -0.2715
     56  CB        42.5570   77.2340   28.2650 C.3    51  LYS51       0.0311
     57  CG        43.7230   76.2820   28.1260 C.3    51  LYS51       0.0038
     58  CD        44.5360   76.1710   29.3920 C.3    51  LYS51       0.0206
     59  CE        45.6600   75.1630   29.2430 C.3    51  LYS51       0.1093
     60  NZ        46.5420   75.2120   30.4520 N.3    51  LYS51      -0.1314
     61  N         39.9330   78.6460   26.1370 N.am   52  SER52      -0.1936
     62  CA        38.8620   79.6540   26.1840 C.3    52  SER52       0.2055
     63  C         37.4650   79.0590   26.3820 C.2    52  SER52       0.2644
     64  O         36.5850   79.7160   26.8950 O.2    52  SER52      -0.2714
     65  CB        38.8760   80.5390   24.9430 C.3    52  SER52       0.2130
     66  OG        38.7700   79.8120   23.7410 O.3    52  SER52      -0.2179
     67  N         37.2880   77.7990   26.0280 N.am   53  GLY53      -0.1939
     68  CA        36.0060   77.1220   26.2310 C.3    53  GLY53       0.2014
     69  C         35.3760   76.4810   25.0110 C.2    53  GLY53       0.2639
     70  O         34.1990   76.1090   25.0510 O.2    53  GLY53      -0.2714
     71  N         36.1440   76.3060   23.9380 N.am   54  ARG54      -0.1963
     72  CA        35.5940   75.8350   22.6620 C.3    54  ARG54       0.1729
     73  C         35.0800   74.4090   22.7350 C.2    54  ARG54       0.2617
     74  O         33.9470   74.1170   22.3240 O.2    54  ARG54      -0.2715
     75  CB        36.6420   75.9730   21.5560 C.3    54  ARG54       0.0348
     76  CG        36.9730   77.4690   21.3410 C.3    54  ARG54       0.0492
     77  CD        38.3310   77.6460   20.7250 C.3    54  ARG54       0.2205
     78  NE        39.4200   77.0020   21.4380 N.pl3  54  ARG54      -0.0865
     79  CZ        40.5780   76.6810   20.8780 C.cat  54  ARG54       0.5346
     80  NH1       40.7950   76.9190   19.6040 N.pl3  54  ARG54       0.1354
     81  NH2       41.5070   76.0690   21.5730 N.pl3  54  ARG54       0.1354
     82  N         35.8950   73.5290   23.2720 N.am   55  THR55      -0.1937
     83  CA        35.4820   72.1300   23.4550 C.3    55  THR55       0.2028
     84  C         34.3020   72.0180   24.4460 C.2    55  THR55       0.2642
     85  O         33.3680   71.2620   24.2170 O.2    55  THR55      -0.2714
     86  CB        36.6910   71.2380   23.8830 C.3    55  THR55       0.1808
     87  OG1       37.6570   71.2540   22.8110 O.3    55  THR55      -0.2208
     88  CG2       36.2600   69.7980   24.1920 C.3    55  THR55       0.0379
     89  N         34.3400   72.7960   25.5350 N.am   56  HIS56      -0.1973
     90  CA        33.2160   72.8150   26.4570 C.3    56  HIS56       0.1656
     91  C         31.9280   73.1500   25.7010 C.2    56  HIS56       0.2291
     92  O         30.9170   72.4470   25.8340 O.2    56  HIS56      -0.2864
     93  CB        33.4740   73.7950   27.6110 C.3    56  HIS56       0.0771
     94  CG        32.3890   73.8210   28.6300 C.ar   56  HIS56       0.0820
     95  ND1       32.6420   73.8020   29.9810 N.ar   56  HIS56      -0.2267
     96  CD2       31.0380   73.8500   28.4970 C.ar   56  HIS56       0.1154
     97  CE1       31.4940   73.8460   30.6390 C.ar   56  HIS56       0.1986
     98  NE2       30.5070   73.8900   29.7680 N.ar   56  HIS56      -0.2212
     99  N         35.6470   69.7850   16.1880 N.3   100  ASP100     -0.1225
    100  CA        36.5020   70.5440   17.0930 C.3   100  ASP100      0.1805
    101  C         37.8740   70.7290   16.4170 C.2   100  ASP100      0.2597
    102  O         38.4250   69.7990   15.8010 O.2   100  ASP100     -0.2718
    103  CB        36.6160   69.7600   18.4040 C.3   100  ASP100      0.1424
    104  CG        36.7980   70.6330   19.6680 C.2   100  ASP100      0.3668
    105  OD1       36.9830   71.8830   19.5870 O.co2 100  ASP100     -0.2456
    106  OD2       36.7430   69.9690   20.7610 O.co2 100  ASP100     -0.2456
    107  N         38.4350   71.9150   16.5330 N.am  101  ASP101     -0.1974
    108  CA        39.7540   72.2180   15.9650 C.3   101  ASP101      0.1709
    109  C         39.8360   71.9420   14.4590 C.2   101  ASP101      0.2293
    110  O         40.8020   71.3640   13.9810 O.2   101  ASP101     -0.2864
    111  CB        40.8490   71.4770   16.7370 C.3   101  ASP101      0.1436
    112  CG        40.7180   71.7060   18.2430 C.2   101  ASP101      0.3671
    113  OD1       40.8110   72.8980   18.6600 O.co2 101  ASP101     -0.2456
    114  OD2       40.4730   70.7090   18.9540 O.co2 101  ASP101     -0.2456
    115  N         35.0370   84.9370   23.7650 N.3   159  GLN159     -0.1231
    116  CA        35.7730   85.6370   24.8170 C.3   159  GLN159      0.1683
    117  C         36.0820   84.6720   25.9650 C.2   159  GLN159      0.2434
    118  O         35.1750   84.0460   26.5070 O.2   159  GLN159     -0.2733
    119  CB        34.9630   86.8320   25.3470 C.3   159  GLN159      0.0380
    120  CG        34.7690   87.9360   24.3550 C.3   159  GLN159      0.0905
    121  CD        36.0690   88.4900   23.8310 C.2   159  GLN159      0.2608
    122  OE1       37.0260   88.7270   24.5900 O.2   159  GLN159     -0.2717
    123  NE2       36.1320   88.6670   22.5270 N.am  159  GLN159     -0.0878
    124  N         37.3600   84.5610   26.3440 N.am  160  PRO160     -0.2729
    125  CA        37.7040   83.7260   27.5080 C.3   160  PRO160      0.1401
    126  C         37.3280   84.4430   28.8010 C.2   160  PRO160      0.2269
    127  O         37.0510   85.6640   28.7850 O.2   160  PRO160     -0.2865
    128  CB        39.2270   83.5980   27.4110 C.3   160  PRO160      0.0296
    129  CG        39.6780   84.8130   26.6490 C.3   160  PRO160      0.0237
    130  CD        38.5330   85.2520   25.7870 C.3   160  PRO160      0.0939
    131  N         31.4190   76.0560   40.0280 N.3   171  ARG171     -0.1245
    132  CA        31.0600   74.7300   39.5540 C.3   171  ARG171      0.1563
    133  C         30.9770   73.7280   40.7080 C.2   171  ARG171      0.2260
    134  O         30.1150   72.8460   40.7050 O.2   171  ARG171     -0.2867
    135  CB        31.9710   74.2380   38.4090 C.3   171  ARG171      0.0307
    136  CG        31.1420   73.4350   37.4420 C.3   171  ARG171      0.0489
    137  CD        31.9140   72.5080   36.5930 C.3   171  ARG171      0.2205
    138  NE        32.4190   73.2010   35.4390 N.pl3 171  ARG171     -0.0865
    139  CZ        33.0560   72.6260   34.4410 C.cat 171  ARG171      0.5346
    140  NH1       33.2850   71.3220   34.4260 N.pl3 171  ARG171      0.1354
    141  NH2       33.4900   73.3820   33.4670 N.pl3 171  ARG171      0.1354
    142  N         45.2500   74.9670   35.3400 N.3   192  ASP192     -0.1225
    143  CA        44.5020   74.3150   34.2650 C.3   192  ASP192      0.1805
    144  C         43.1080   73.9160   34.7300 C.2   192  ASP192      0.2598
    145  O         42.9470   72.9720   35.5150 O.2   192  ASP192     -0.2718
    146  CB        45.2570   73.1120   33.7400 C.3   192  ASP192      0.1424
    147  CG        44.5950   72.5290   32.5400 C.2   192  ASP192      0.3668
    148  OD1       44.6000   73.2170   31.4910 O.co2 192  ASP192     -0.2456
    149  OD2       44.0700   71.4070   32.6470 O.co2 192  ASP192     -0.2456
    150  N         42.0900   74.6320   34.2380 N.am  193  LEU193     -0.1966
    151  CA        40.7500   74.4060   34.6830 C.3   193  LEU193      0.1728
    152  C         40.2240   73.0100   34.3390 C.2   193  LEU193      0.2616
    153  O         39.5310   72.4290   35.1440 O.2   193  LEU193     -0.2715
    154  CB        39.7700   75.4870   34.2060 C.3   193  LEU193      0.0311
    155  CG        39.7630   76.8240   34.9580 C.3   193  LEU193      0.0022
    156  CD1       38.6260   77.6630   34.4560 C.3   193  LEU193      0.0001
    157  CD2       39.6280   76.6680   36.4560 C.3   193  LEU193      0.0001
    158  N         40.5670   72.4620   33.1850 N.am  194  ARG194     -0.1977
    159  CA        40.0770   71.1200   32.8300 C.3   194  ARG194      0.1597
    160  C         40.5540   70.0810   33.8490 C.2   194  ARG194      0.2287
    161  O         39.7780   69.2180   34.3140 O.2   194  ARG194     -0.2864
    162  CB        40.4850   70.7580   31.3980 C.3   194  ARG194      0.0334
    163  CG        39.8870   69.4320   30.8940 C.3   194  ARG194      0.0492
    164  CD        39.9590   69.2680   29.3690 C.3   194  ARG194      0.2205
    165  NE        38.9390   70.0560   28.6660 N.pl3 194  ARG194     -0.0865
    166  CZ        37.6470   69.7420   28.6310 C.cat 194  ARG194      0.5346
    167  NH1       37.1820   68.6510   29.2410 N.pl3 194  ARG194      0.1354
    168  NH2       36.8090   70.5050   27.9630 N.pl3 194  ARG194      0.1354
    169  N         38.6890   70.7540   37.1650 N.3   197  PHE197     -0.1241
    170  CA        37.3040   70.3220   37.1410 C.3   197  PHE197      0.1605
    171  C         37.2200   68.8100   37.2170 C.2   197  PHE197      0.2264
    172  O         36.3160   68.2670   37.8620 O.2   197  PHE197     -0.2867
    173  CB        36.5260   70.9210   35.9880 C.3   197  PHE197      0.0534
    174  CG        36.2030   72.3770   36.1900 C.ar  197  PHE197     -0.0203
    175  CD1       35.6690   72.8220   37.4050 C.ar  197  PHE197     -0.0042
    176  CD2       36.4200   73.3020   35.1890 C.ar  197  PHE197     -0.0042
    177  CE1       35.3630   74.1710   37.5840 C.ar  197  PHE197     -0.0003
    178  CE2       36.1180   74.6550   35.3850 C.ar  197  PHE197     -0.0003
    179  CZ        35.5980   75.0710   36.5780 C.ar  197  PHE197     -0.0000
@<TRIPOS>BOND
     1   110   109    2
     2   109   108    1
     3   102   101    2
     4   108   107    1
     5   108   111    1
     6    99   100    1
     7   101   107   am
     8   101   100    1
     9   111   112    1
    10   100   103    1
    11   112   113   ar
    12   112   114   ar
    13   103   104    1
    14   105   104   ar
    15    80    79    1
    16   104   106   ar
    17    77    76    1
    18    77    78    1
    19    79    78    2
    20    79    81    1
    21    76    75    1
    22    75    72    1
    23    74    73    2
    24   123   121   am
    25    72    73    1
    26    72    71    1
    27    73    82   am
    28    87    86    1
    29    45    46    1
    30    82    83    1
    31    83    86    1
    32    83    84    1
    33    66    65    1
    34   115   116    1
    35   121   120    1
    36   121   122    2
    37    86    88    1
    38    71    69   am
    39    46    49    1
    40    46    47    1
    41    49    51    1
    42    49    50    1
    43    85    84    2
    44   120   119    1
    45    84    89   am
    46   116   119    1
    47   116   117    1
    48    65    62    1
    49    69    70    2
    50    69    68    1
    51    47    52   am
    52    47    48    2
    53    89    90    1
    54    91    92    2
    55    91    90    1
    56   130   124    1
    57   130   129    1
    58    52    53    1
    59   117   124   am
    60   117   118    2
    61    67    68    1
    62    67    63   am
    63    61    62    1
    64    61    54   am
    65    62    63    1
    66   124   125    1
    67    63    64    2
    68    90    93    1
    69   129   128    1
    70    27    26    1
    71    53    54    1
    72    53    56    1
    73    54    55    2
    74   128   125    1
    75   125   126    1
    76    26    24   ar
    77    26    25   ar
    78    93    94    1
    79    24    22   ar
    80   168   166    1
    81    25    23   ar
    82    57    56    1
    83    57    58    1
    84     8     7   ar
    85     4     3    2
    86    96    94   ar
    87    96    98   ar
    88    94    95   ar
    89   166   165    2
    90   166   167    1
    91   165   164    1
    92    22    21   ar
    93   127   126    2
    94    23    21   ar
    95    59    58    1
    96    59    60    1
    97    21    20    1
    98     5     6    1
    99     5     2    1
   100   164   163    1
   101     7     9   ar
   102     7     6    1
   103    43    42    2
   104     3     2    1
   105    98    97   ar
   106    95    97   ar
   107    20    17    1
   108    42    41    1
   109    44    41    1
   110     2     1    1
   111   163   162    1
   112    41    40    1
   113   162   159    1
   114   148   147   ar
   115    17    16    1
   116    17    18    1
   117    31    30    2
   118    16    12   am
   119    18    28   am
   120    18    19    2
   121   147   149   ar
   122   147   146    1
   123    15    14    1
   124    30    29    1
   125    28    29    1
   126   159   158    1
   127   159   160    1
   128    10    11    1
   129   158   152   am
   130    12    11    1
   131    12    13    2
   132   141   139    1
   133    29    32    1
   134   146   143    1
   135    11    14    1
   136   160   161    2
   137    32    33    1
   138   154   151    1
   139   154   155    1
   140    35    33   ar
   141    35    37   ar
   142   150   151    1
   143   150   144   am
   144   143   144    1
   145   143   142    1
   146   152   151    1
   147   152   153    2
   148   140   139    1
   149   139   138    2
   150   156   155    1
   151   144   145    2
   152    33    34   ar
   153   155   157    1
   154    37    38   ar
   155   176   178   ar
   156   176   174   ar
   157   178   179   ar
   158   138   137    1
   159   173   174    1
   160   173   170    1
   161    34    36   ar
   162   174   175   ar
   163    38    36   ar
   164    38    39    1
   165   179   177   ar
   166   137   136    1
   167   170   169    1
   168   170   171    1
   169   171   172    2
   170   175   177   ar
   171   136   135    1
   172   135   132    1
   173   132   131    1
   174   132   133    1
   175   134   133    2
