@<TRIPOS>MOLECULE
tmp/3bp1A00.pdb
 100 99 0 0 0
SMALL
GASTEIGER

@<TRIPOS>ATOM
      1  N         55.3500   59.8960   59.0120 N.3    36  TRP36      -0.1241
      2  CA        56.2700   58.7880   59.2250 C.3    36  TRP36       0.1605
      3  C         55.5040   57.6000   59.7810 C.2    36  TRP36       0.2264
      4  O         54.5880   57.7980   60.6370 O.2    36  TRP36      -0.2867
      5  CB        57.3270   59.1390   60.2780 C.3    36  TRP36       0.0550
      6  CG        58.3120   60.1880   59.8830 C.ar   36  TRP36       0.0003
      7  CD1       58.0650   61.5240   59.6330 C.ar   36  TRP36       0.0946
      8  CD2       59.7290   60.0060   59.7530 C.ar   36  TRP36       0.0152
      9  NE1       59.2660   62.1620   59.3420 N.ar   36  TRP36      -0.2442
     10  CE2       60.2950   61.2640   59.4280 C.ar   36  TRP36       0.0810
     11  CE3       60.5670   58.8990   59.8800 C.ar   36  TRP36       0.0012
     12  CZ2       61.6860   61.4360   59.2220 C.ar   36  TRP36       0.0191
     13  CZ3       61.9470   59.0560   59.6930 C.ar   36  TRP36       0.0001
     14  CH2       62.4940   60.3220   59.3810 C.ar   36  TRP36       0.0015
     15  N         63.7280   69.0310   60.2080 N.3    66  LEU66      -0.1231
     16  CA        63.2940   67.6480   60.0400 C.3    66  LEU66       0.1693
     17  C         64.1380   66.7840   60.9630 C.2    66  LEU66       0.2592
     18  O         65.0220   67.2850   61.6420 O.2    66  LEU66      -0.2718
     19  CB        63.4100   67.1880   58.5820 C.3    66  LEU66       0.0284
     20  CG        64.7330   67.3230   57.8270 C.3    66  LEU66       0.0019
     21  CD1       65.6980   66.1780   58.1210 C.3    66  LEU66       0.0001
     22  CD2       64.4650   67.3150   56.3270 C.3    66  LEU66       0.0001
     23  N         63.7980   65.5010   61.0460 N.am   67  ILE67      -0.1966
     24  CA        64.4880   64.5740   61.9570 C.3    67  ILE67       0.1727
     25  C         65.2300   63.5960   61.0860 C.2    67  ILE67       0.2616
     26  O         64.6250   63.0000   60.2030 O.2    67  ILE67      -0.2715
     27  CB        63.5170   63.8320   62.9020 C.3    67  ILE67       0.0290
     28  CG1       62.7020   64.8670   63.6790 C.3    67  ILE67       0.0022
     29  CG2       64.2760   62.8460   63.8400 C.3    67  ILE67       0.0023
     30  CD1       61.7960   64.3220   64.7280 C.3    67  ILE67       0.0001
     31  N         66.5290   63.4410   61.3180 N.am   68  GLU68      -0.1963
     32  CA        67.3370   62.5350   60.5060 C.3    68  GLU68       0.1733
     33  C         66.9130   61.0730   60.8250 C.2    68  GLU68       0.2617
     34  O         66.7690   60.6910   61.9970 O.2    68  GLU68      -0.2715
     35  CB        68.8110   62.7980   60.7840 C.3    68  GLU68       0.0429
     36  CG        69.7190   62.1100   59.7830 C.3    68  GLU68       0.1163
     37  CD        69.8940   60.6310   60.0820 C.2    68  GLU68       0.3649
     38  OE1       70.1260   60.3410   61.2960 O.co2  68  GLU68      -0.2457
     39  OE2       69.8020   59.7740   59.1280 O.co2  68  GLU68      -0.2457
     40  N         66.6750   60.2870   59.7790 N.am   69  SER69      -0.1936
     41  CA        66.0180   58.9850   59.9250 C.3    69  SER69       0.2055
     42  C         66.8030   57.9640   60.7550 C.2    69  SER69       0.2642
     43  O         66.2220   57.2560   61.5700 O.2    69  SER69      -0.2714
     44  CB        65.6690   58.4160   58.5560 C.3    69  SER69       0.2130
     45  OG        65.0770   57.1350   58.6740 O.3    69  SER69      -0.2179
     46  N         68.1140   57.8840   60.5450 N.am   70  LYS70      -0.1977
     47  CA        68.9380   56.9400   61.3280 C.3    70  LYS70       0.1596
     48  C         68.8700   57.2860   62.8190 C.2    70  LYS70       0.2287
     49  O         68.7170   56.3920   63.6660 O.2    70  LYS70      -0.2864
     50  CB        70.3850   56.9380   60.8530 C.3    70  LYS70       0.0298
     51  CG        71.1750   55.8790   61.5560 C.3    70  LYS70       0.0038
     52  CD        72.6640   56.0670   61.2880 C.3    70  LYS70       0.0206
     53  CE        73.5050   55.6210   62.5130 C.3    70  LYS70       0.1093
     54  NZ        73.7240   56.7260   63.5530 N.3    70  LYS70      -0.1314
     55  N         66.9860   54.2930   47.9000 N.3   168  ASP168     -0.1239
     56  CA        65.6380   54.5010   48.4660 C.3   168  ASP168      0.1674
     57  C         64.5940   54.4050   47.3640 C.2   168  ASP168      0.2266
     58  O         64.8600   54.7650   46.2130 O.2   168  ASP168     -0.2867
     59  CB        65.5380   55.8690   49.0850 C.3   168  ASP168      0.1410
     60  CG        66.5060   56.0410   50.2580 C.2   168  ASP168      0.3668
     61  OD1       66.6900   55.0790   51.0310 O.co2 168  ASP168     -0.2456
     62  OD2       67.0680   57.1410   50.3950 O.co2 168  ASP168     -0.2456
     63  N         67.5570   63.8880   50.5980 N.3   198  PHE198     -0.1227
     64  CA        66.5890   63.3540   51.5730 C.3   198  PHE198      0.1736
     65  C         65.2330   63.2920   50.8810 C.2   198  PHE198      0.2595
     66  O         64.9500   64.0910   49.9860 O.2   198  PHE198     -0.2718
     67  CB        66.4640   64.2570   52.8190 C.3   198  PHE198      0.0547
     68  CG        67.5380   64.0250   53.8720 C.ar  198  PHE198     -0.0202
     69  CD1       68.6940   63.3030   53.5860 C.ar  198  PHE198     -0.0042
     70  CD2       67.3730   64.5480   55.1560 C.ar  198  PHE198     -0.0042
     71  CE1       69.6890   63.0940   54.5690 C.ar  198  PHE198     -0.0003
     72  CE2       68.3630   64.3400   56.1630 C.ar  198  PHE198     -0.0003
     73  CZ        69.5170   63.6210   55.8600 C.ar  198  PHE198     -0.0000
     74  N         64.3870   62.3780   51.3250 N.am  199  HIS199     -0.1961
     75  CA        63.0370   62.2180   50.7720 C.3   199  HIS199      0.1787
     76  C         62.2460   63.5270   50.7870 C.2   199  HIS199      0.2620
     77  O         61.5560   63.8530   49.8200 O.2   199  HIS199     -0.2715
     78  CB        62.2470   61.1690   51.5800 C.3   199  HIS199      0.0785
     79  CG        62.8760   59.7990   51.5920 C.ar  199  HIS199      0.0821
     80  ND1       63.8960   59.4350   50.7420 N.ar  199  HIS199     -0.2267
     81  CD2       62.5860   58.6950   52.3220 C.ar  199  HIS199      0.1154
     82  CE1       64.2410   58.1810   50.9810 C.ar  199  HIS199      0.1986
     83  NE2       63.4620   57.7080   51.9390 N.ar  199  HIS199     -0.2212
     84  N         62.3070   64.2390   51.9250 N.am  200  GLU200     -0.1977
     85  CA        61.5490   65.4820   52.1160 C.3   200  GLU200      0.1602
     86  C         62.0510   66.4880   51.1050 C.2   200  GLU200      0.2287
     87  O         61.2800   67.2520   50.4860 O.2   200  GLU200     -0.2864
     88  CB        61.8540   66.0260   53.5170 C.3   200  GLU200      0.0415
     89  CG        61.3560   65.1640   54.6570 C.3   200  GLU200      0.1163
     90  CD        62.3750   64.1250   55.1700 C.2   200  GLU200      0.3649
     91  OE1       63.1770   63.5830   54.3760 O.co2 200  GLU200     -0.2457
     92  OE2       62.3330   63.7650   56.3620 O.co2 200  GLU200     -0.2457
     93  N         59.0340   57.3610   55.5330 N.3   232  ILE232     -0.1245
     94  CA        58.6620   58.7520   55.4840 C.3   232  ILE232      0.1561
     95  C         57.9320   59.0510   54.1850 C.2   232  ILE232      0.2260
     96  O         58.3070   58.5700   53.0920 O.2   232  ILE232     -0.2867
     97  CB        59.8680   59.6630   55.6550 C.3   232  ILE232      0.0252
     98  CG1       59.4210   61.0890   55.9830 C.3   232  ILE232      0.0019
     99  CG2       60.7170   59.6080   54.4350 C.3   232  ILE232      0.0019
    100  CD1       60.5630   62.0380   55.9500 C.3   232  ILE232      0.0001
@<TRIPOS>BOND
     1    58    57    2
     2    57    56    1
     3    55    56    1
     4    56    59    1
     5    59    60    1
     6    77    76    2
     7    66    65    2
     8    60    62   ar
     9    60    61   ar
    10    87    86    2
    11    63    64    1
    12    80    82   ar
    13    80    79   ar
    14    75    76    1
    15    75    74    1
    16    75    78    1
    17    76    84   am
    18    65    74   am
    19    65    64    1
    20    82    83   ar
    21    86    85    1
    22    64    67    1
    23    78    79    1
    24    79    81   ar
    25    84    85    1
    26    83    81   ar
    27    85    88    1
    28    67    68    1
    29    96    95    2
    30    88    89    1
    31    69    68   ar
    32    69    71   ar
    33    68    70   ar
    34    95    94    1
    35    91    90   ar
    36    99    97    1
    37    71    73   ar
    38    89    90    1
    39    70    72   ar
    40    90    92   ar
    41    94    93    1
    42    94    97    1
    43    97    98    1
    44    73    72   ar
    45   100    98    1
    46    22    20    1
    47    20    21    1
    48    20    19    1
    49    44    45    1
    50    44    41    1
    51    19    16    1
    52     1     2    1
    53    39    37   ar
    54    12    14   ar
    55    12    10   ar
    56     2     3    1
    57     2     5    1
    58     9    10   ar
    59     9     7   ar
    60    14    13   ar
    61    10     8   ar
    62     7     6   ar
    63    13    11   ar
    64     8    11   ar
    65     8     6   ar
    66    40    41    1
    67    40    33   am
    68     3     4    2
    69    36    37    1
    70    36    35    1
    71     6     5    1
    72    41    42    1
    73    16    15    1
    74    16    17    1
    75    37    38   ar
    76    26    25    2
    77    32    35    1
    78    32    33    1
    79    32    31    1
    80    46    42   am
    81    46    47    1
    82    42    43    2
    83    33    34    2
    84    50    47    1
    85    50    51    1
    86    17    23   am
    87    17    18    2
    88    23    24    1
    89    25    31   am
    90    25    24    1
    91    52    51    1
    92    52    53    1
    93    47    48    1
    94    24    27    1
    95    53    54    1
    96    48    49    2
    97    27    28    1
    98    27    29    1
    99    28    30    1
