@<TRIPOS>MOLECULE
tmp/3bpfB00.pdb
 142 140 0 0 0
SMALL
GASTEIGER

@<TRIPOS>ATOM
      1  N        -46.3030   23.3500  -55.6070 N.3    36  GLN36      -0.1245
      2  CA       -45.7360   24.6940  -55.5840 C.3    36  GLN36       0.1566
      3  C        -44.8920   24.9820  -56.8300 C.2    36  GLN36       0.2260
      4  O        -44.8150   26.1270  -57.3020 O.2    36  GLN36      -0.2867
      5  CB       -44.8250   24.8540  -54.3580 C.3    36  GLN36       0.0367
      6  CG       -43.6020   23.8970  -54.3610 C.3    36  GLN36       0.0905
      7  CD       -42.5360   24.2310  -53.3430 C.2    36  GLN36       0.2608
      8  OE1      -42.1420   23.3730  -52.5530 O.2    36  GLN36      -0.2717
      9  NE2      -42.0460   25.4680  -53.3680 N.am   36  GLN36      -0.0878
     10  N        -41.1320   29.6290  -54.3070 N.3    40  GLY40      -0.1210
     11  CA       -40.7240   29.2040  -52.9670 C.3    40  GLY40       0.1956
     12  C        -41.7980   29.3340  -51.9040 C.2    40  GLY40       0.2613
     13  O        -41.7150   30.1990  -51.0320 O.2    40  GLY40      -0.2717
     14  N        -42.7920   28.4500  -51.9590 N.am   41  SER41      -0.1938
     15  CA       -43.9790   28.5450  -51.1010 C.3    41  SER41       0.2055
     16  C        -44.1630   27.3610  -50.1380 C.2    41  SER41       0.2643
     17  O        -45.1800   27.2900  -49.4410 O.2    41  SER41      -0.2714
     18  CB       -45.2340   28.7010  -51.9740 C.3    41  SER41       0.2130
     19  OG       -45.4620   27.5430  -52.7560 O.3    41  SER41      -0.2179
     20  N        -43.1860   26.4550  -50.0740 N.am   42  CYS42      -0.1953
     21  CA       -43.3240   25.2290  -49.2720 C.3    42  CYS42       0.1843
     22  C        -43.8100   25.4920  -47.8530 C.2    42  CYS42       0.2625
     23  O        -44.4820   24.6520  -47.2620 O.2    42  CYS42      -0.2714
     24  CB       -42.0060   24.4630  -49.2020 C.3    42  CYS42       0.0997
     25  SG       -40.6260   25.4150  -48.5180 S.3    42  CYS42      -0.0797
     26  N        -43.4520   26.6490  -47.3050 N.am   43  TRP43      -0.1974
     27  CA       -43.9300   27.0500  -45.9830 C.3    43  TRP43       0.1640
     28  C        -45.4620   27.1460  -45.9520 C.2    43  TRP43       0.2290
     29  O        -46.1100   26.6570  -45.0210 O.2    43  TRP43      -0.2864
     30  CB       -43.2900   28.3780  -45.5680 C.3    43  TRP43       0.0576
     31  CG       -43.6590   29.4900  -46.4570 C.ar   43  TRP43       0.0006
     32  CD1      -43.0550   29.8410  -47.6230 C.ar   43  TRP43       0.0946
     33  CD2      -44.7510   30.3920  -46.2790 C.ar   43  TRP43       0.0152
     34  NE1      -43.6930   30.9210  -48.1780 N.ar   43  TRP43      -0.2442
     35  CE2      -44.7410   31.2780  -47.3720 C.ar   43  TRP43       0.0810
     36  CE3      -45.7410   30.5340  -45.3000 C.ar   43  TRP43       0.0012
     37  CZ2      -45.6780   32.3000  -47.5120 C.ar   43  TRP43       0.0191
     38  CZ3      -46.6710   31.5460  -45.4380 C.ar   43  TRP43       0.0001
     39  CH2      -46.6320   32.4190  -46.5370 C.ar   43  TRP43       0.0015
     40  N        -42.7050   36.0250  -46.3490 N.3    78  TYR78      -0.1241
     41  CA       -42.1630   36.7580  -47.4990 C.3    78  TYR78       0.1605
     42  C        -42.5650   36.1960  -48.8710 C.2    78  TYR78       0.2264
     43  O        -41.7930   36.2660  -49.8320 O.2    78  TYR78      -0.2867
     44  CB       -40.6350   36.8380  -47.3770 C.3    78  TYR78       0.0534
     45  CG       -40.1730   37.6070  -46.1590 C.ar   78  TYR78      -0.0201
     46  CD1      -40.5570   38.9260  -45.9640 C.ar   78  TYR78      -0.0009
     47  CD2      -39.3550   37.0180  -45.2030 C.ar   78  TYR78      -0.0009
     48  CE1      -40.1450   39.6390  -44.8540 C.ar   78  TYR78       0.0417
     49  CE2      -38.9310   37.7270  -44.0870 C.ar   78  TYR78       0.0417
     50  CZ       -39.3310   39.0380  -43.9190 C.ar   78  TYR78       0.1957
     51  OH       -38.9200   39.7560  -42.8160 O.3    78  TYR78      -0.2866
     52  N        -40.4780   34.3700  -51.7610 N.3    81  ASN81      -0.1225
     53  CA       -39.1410   34.3720  -51.1610 C.3    81  ASN81       0.1785
     54  C        -39.0720   33.6100  -49.8300 C.2    81  ASN81       0.2598
     55  O        -38.3300   33.9880  -48.9220 O.2    81  ASN81      -0.2718
     56  CB       -38.6530   35.8110  -50.9780 C.3    81  ASN81       0.1169
     57  CG       -38.6020   36.5800  -52.2840 C.2    81  ASN81       0.2627
     58  OD1      -38.4850   35.9910  -53.3580 O.2    81  ASN81      -0.2716
     59  ND2      -38.6910   37.9010  -52.1960 N.am   81  ASN81      -0.0877
     60  N        -39.8500   32.5340  -49.7250 N.am   82  GLY82      -0.1942
     61  CA       -39.8170   31.6440  -48.5680 C.3    82  GLY82       0.2014
     62  C        -40.5380   32.1540  -47.3320 C.2    82  GLY82       0.2639
     63  O        -41.0600   33.2750  -47.3140 O.2    82  GLY82      -0.2714
     64  N        -40.5600   31.3160  -46.2950 N.am   83  GLY83      -0.1939
     65  CA       -41.2020   31.6580  -45.0250 C.3    83  GLY83       0.2014
     66  C        -40.9050   30.6440  -43.9390 C.2    83  GLY83       0.2639
     67  O        -40.0040   29.8200  -44.0890 O.2    83  GLY83      -0.2714
     68  N        -41.6630   30.7190  -42.8430 N.am   84  LEU84      -0.1963
     69  CA       -41.5580   29.7660  -41.7290 C.3    84  LEU84       0.1728
     70  C        -42.9410   29.2270  -41.3620 C.2    84  LEU84       0.2616
     71  O        -43.9490   29.9130  -41.5530 O.2    84  LEU84      -0.2715
     72  CB       -40.9310   30.4260  -40.4970 C.3    84  LEU84       0.0311
     73  CG       -39.6460   31.2350  -40.7010 C.3    84  LEU84       0.0022
     74  CD1      -39.1350   31.7940  -39.3730 C.3    84  LEU84       0.0001
     75  CD2      -38.5790   30.3940  -41.3740 C.3    84  LEU84       0.0001
     76  N        -42.9750   28.0080  -40.8180 N.am   85  ILE85      -0.1977
     77  CA       -44.2300   27.3290  -40.4920 C.3    85  ILE85       0.1596
     78  C        -45.0010   28.0760  -39.4150 C.2    85  ILE85       0.2287
     79  O        -46.1240   28.5180  -39.6430 O.2    85  ILE85      -0.2864
     80  CB       -44.0030   25.8870  -40.0010 C.3    85  ILE85       0.0276
     81  CG1      -43.4260   25.0050  -41.1090 C.3    85  ILE85       0.0022
     82  CG2      -45.3110   25.2870  -39.5110 C.3    85  ILE85       0.0022
     83  CD1      -43.1550   23.5690  -40.6490 C.3    85  ILE85       0.0001
     84  N        -39.5780   21.0070  -40.8640 N.3   149  SER149     -0.1217
     85  CA       -38.4710   21.4130  -41.7290 C.3   149  SER149      0.1889
     86  C        -37.6240   20.2050  -42.0990 C.2   149  SER149      0.2288
     87  O        -37.7490   19.1500  -41.4950 O.2   149  SER149     -0.2866
     88  CB       -37.6120   22.5030  -41.0600 C.3   149  SER149      0.2089
     89  OG       -37.3780   22.2380  -39.6870 O.3   149  SER149     -0.2183
     90  N        -31.3180   23.2890  -42.7980 N.3   172  LEU172     -0.1231
     91  CA       -32.7400   23.0590  -43.0870 C.3   172  LEU172      0.1693
     92  C        -33.2100   24.0960  -44.0990 C.2   172  LEU172      0.2592
     93  O        -32.9970   25.2960  -43.9050 O.2   172  LEU172     -0.2718
     94  CB       -33.5750   23.1920  -41.8180 C.3   172  LEU172      0.0284
     95  CG       -33.2810   22.2060  -40.6950 C.3   172  LEU172      0.0019
     96  CD1      -33.8880   22.7090  -39.4010 C.3   172  LEU172      0.0001
     97  CD2      -33.7990   20.8210  -41.0470 C.3   172  LEU172      0.0001
     98  N        -33.8510   23.6410  -45.1700 N.am  173  ASN173     -0.1960
     99  CA       -34.1010   24.5070  -46.3200 C.3   173  ASN173      0.1819
    100  C        -35.4750   24.3440  -46.9860 C.2   173  ASN173      0.2621
    101  O        -35.7060   24.8640  -48.0780 O.2   173  ASN173     -0.2715
    102  CB       -32.9880   24.2770  -47.3560 C.3   173  ASN173      0.1195
    103  CG       -32.9330   22.8370  -47.8490 C.2   173  ASN173      0.2630
    104  OD1      -33.7150   21.9920  -47.4200 O.2   173  ASN173     -0.2716
    105  ND2      -32.0090   22.5540  -48.7540 N.am  173  ASN173     -0.0877
    106  N        -36.3940   23.6460  -46.3360 N.am  174  HIS174     -0.1959
    107  CA       -37.6000   23.2110  -47.0260 C.3   174  HIS174      0.1787
    108  C        -38.6490   22.6430  -46.0850 C.2   174  HIS174      0.2620
    109  O        -38.3460   21.7690  -45.2710 O.2   174  HIS174     -0.2715
    110  CB       -37.2280   22.1470  -48.0580 C.3   174  HIS174      0.0785
    111  CG       -38.3770   21.6880  -48.8910 C.ar  174  HIS174      0.0821
    112  ND1      -39.2790   22.5600  -49.4570 N.ar  174  HIS174     -0.2267
    113  CD2      -38.7590   20.4470  -49.2710 C.ar  174  HIS174      0.1154
    114  CE1      -40.1740   21.8740  -50.1430 C.ar  174  HIS174      0.1986
    115  NE2      -39.8820   20.5890  -50.0450 N.ar  174  HIS174     -0.2212
    116  N        -39.8810   23.1350  -46.2240 N.am  175  ALA175     -0.1977
    117  CA       -41.0150   22.6590  -45.4260 C.3   175  ALA175      0.1597
    118  C        -41.6590   21.4410  -46.0850 C.2   175  ALA175      0.2287
    119  O        -41.7770   21.3700  -47.3090 O.2   175  ALA175     -0.2864
    120  CB       -42.0540   23.7730  -45.2380 C.3   175  ALA175      0.0319
    121  N        -44.0400   18.9170  -54.5800 N.3   206  TRP206     -0.1241
    122  CA       -43.4910   18.9460  -55.9330 C.3   206  TRP206      0.1605
    123  C        -44.4180   18.2280  -56.9040 C.2   206  TRP206      0.2264
    124  O        -43.9700   17.6190  -57.8770 O.2   206  TRP206     -0.2867
    125  CB       -42.0720   18.3720  -55.9420 C.3   206  TRP206      0.0550
    126  CG       -41.1210   19.1420  -55.0460 C.ar  206  TRP206      0.0003
    127  CD1      -41.2840   20.4160  -54.5590 C.ar  206  TRP206      0.0946
    128  CD2      -39.8590   18.6900  -54.5560 C.ar  206  TRP206      0.0152
    129  NE1      -40.2100   20.7650  -53.7840 N.ar  206  TRP206     -0.2442
    130  CE2      -39.3180   19.7260  -53.7670 C.ar  206  TRP206      0.0810
    131  CE3      -39.1350   17.5100  -54.7030 C.ar  206  TRP206      0.0012
    132  CZ2      -38.0820   19.6100  -53.1270 C.ar  206  TRP206      0.0191
    133  CZ3      -37.9110   17.3930  -54.0710 C.ar  206  TRP206      0.0001
    134  CH2      -37.3940   18.4390  -53.2940 C.ar  206  TRP206      0.0015
    135  N        -37.7920   22.0830  -36.5740 N.3   234  ASP234     -0.1239
    136  CA       -39.0470   22.7970  -36.4660 C.3   234  ASP234      0.1674
    137  C        -40.1400   21.8240  -36.8430 C.2   234  ASP234      0.2266
    138  O        -40.0660   21.1860  -37.8910 O.2   234  ASP234     -0.2867
    139  CB       -39.0590   23.9990  -37.3920 C.3   234  ASP234      0.1410
    140  CG       -38.0910   25.0510  -36.9570 C.2   234  ASP234      0.3668
    141  OD1      -37.9310   25.2210  -35.7300 O.co2 234  ASP234     -0.2456
    142  OD2      -37.4940   25.7030  -37.8350 O.co2 234  ASP234     -0.2456
@<TRIPOS>BOND
     1   124   123    2
     2     4     3    2
     3   123   122    1
     4     3     2    1
     5   125   122    1
     6   125   126    1
     7   122   121    1
     8     1     2    1
     9     2     5    1
    10   126   127   ar
    11   126   128   ar
    12   131   128   ar
    13   131   133   ar
    14   127   129   ar
    15   128   130   ar
    16     6     5    1
    17     6     7    1
    18    10    11    1
    19   133   134   ar
    20   129   130   ar
    21   130   132   ar
    22     9     7   am
    23    58    57    2
    24     7     8    2
    25   134   132   ar
    26    11    12    1
    27    19    18    1
    28    57    59   am
    29    57    56    1
    30    18    15    1
    31    14    12   am
    32    14    15    1
    33    12    13    2
    34    52    53    1
    35    53    56    1
    36    53    54    1
    37    15    16    1
    38   114   115   ar
    39   114   112   ar
    40    16    20   am
    41    16    17    2
    42    20    21    1
    43   115   113   ar
    44    43    42    2
    45    54    60   am
    46    54    55    2
    47    60    61    1
    48   112   111   ar
    49    21    24    1
    50    21    22    1
    51   113   111   ar
    52    24    25    1
    53   111   110    1
    54    42    41    1
    55   105   103   am
    56    61    62    1
    57    34    32   ar
    58    34    35   ar
    59   101   100    2
    60   110   107    1
    61    22    26   am
    62    22    23    2
    63   103   104    2
    64   103   102    1
    65    32    31   ar
    66    37    35   ar
    67    37    39   ar
    68    41    44    1
    69    41    40    1
    70    44    45    1
    71    35    33   ar
    72   102    99    1
    73    62    63    2
    74    62    64   am
    75   119   118    2
    76    26    27    1
    77   107   106    1
    78   107   108    1
    79   100   106   am
    80   100    99    1
    81    39    38   ar
    82    31    33   ar
    83    31    30    1
    84    99    98    1
    85    64    65    1
    86    33    36   ar
    87   116   108   am
    88   116   117    1
    89    45    46   ar
    90    45    47   ar
    91   108   109    2
    92   118   117    1
    93    27    28    1
    94    27    30    1
    95    46    48   ar
    96    28    29    2
    97    38    36   ar
    98   117   120    1
    99    47    49   ar
   100    98    92   am
   101    65    66    1
   102    48    50   ar
   103    92    93    2
   104    92    91    1
   105    67    66    2
   106    49    50   ar
   107    66    68   am
   108    50    51    1
   109    91    90    1
   110    91    94    1
   111    68    69    1
   112    86    85    1
   113    86    87    2
   114    94    95    1
   115    85    88    1
   116    85    84    1
   117    69    70    1
   118    69    72    1
   119    71    70    2
   120    75    73    1
   121    70    76   am
   122    81    83    1
   123    81    80    1
   124    88    89    1
   125    97    95    1
   126    76    77    1
   127    73    72    1
   128    73    74    1
   129    95    96    1
   130    77    80    1
   131    77    78    1
   132    80    82    1
   133    79    78    2
   134   138   137    2
   135   142   140   ar
   136   139   140    1
   137   139   136    1
   138   140   141   ar
   139   137   136    1
   140   135   136    1
