@<TRIPOS>MOLECULE
tmp/3bplB00.pdb
 71 74 0 0 0
SMALL
GASTEIGER

@<TRIPOS>ATOM
      1  N         18.4310   -4.3230   -0.9230 N.3   103  ALA103     -0.1231
      2  CA        18.8030   -3.1560   -0.1430 C.3   103  ALA103      0.1679
      3  C         20.3160   -2.9770   -0.1190 C.2   103  ALA103      0.2434
      4  O         21.0630   -3.9480   -0.0290 O.2   103  ALA103     -0.2733
      5  CB        18.2830   -3.2870    1.2580 C.3   103  ALA103      0.0304
      6  N         20.7870   -1.7260   -0.1820 N.am  104  PRO104     -0.2718
      7  CA        22.2280   -1.4620   -0.1160 C.3   104  PRO104      0.1535
      8  C         22.7160   -1.7170    1.3020 C.2   104  PRO104      0.2599
      9  O         21.9230   -1.6810    2.2390 O.2   104  PRO104     -0.2715
     10  CB        22.3360    0.0290   -0.4470 C.3   104  PRO104      0.0310
     11  CG        20.9990    0.4020   -1.0230 C.3   104  PRO104      0.0237
     12  CD        20.0180   -0.4830   -0.3240 C.3   104  PRO104      0.0939
     13  N         24.0060   -1.9720    1.4710 N.am  105  GLY105     -0.1941
     14  CA        24.5250   -2.2000    2.8080 C.3   105  GLY105      0.2014
     15  C         25.8430   -1.5000    3.0620 C.2   105  GLY105      0.2638
     16  O         26.3270   -0.7420    2.2110 O.2   105  GLY105     -0.2714
     17  N         26.4150   -1.7620    4.2390 N.am  106  ASN106     -0.1972
     18  CA        27.7140   -1.2250    4.6460 C.3   106  ASN106      0.1688
     19  C         27.7410    0.2890    4.7430 C.2   106  ASN106      0.2292
     20  O         28.7080    0.9370    4.3190 O.2   106  ASN106     -0.2864
     21  CB        28.8200   -1.7050    3.7070 C.3   106  ASN106      0.1181
     22  CG        28.9530   -3.2040    3.6980 C.2   106  ASN106      0.2629
     23  OD1       28.9810   -3.8290    4.7560 O.2   106  ASN106     -0.2716
     24  ND2       29.0280   -3.7920    2.5010 N.am  106  ASN106     -0.0877
     25  N         27.6320    0.2820    0.1490 N.3   122  SER122     -0.1202
     26  CA        27.9550   -0.6840   -0.9010 C.3   122  SER122      0.2020
     27  C         26.7760   -0.9600   -1.7980 C.2   122  SER122      0.2619
     28  O         25.6280   -0.9590   -1.3470 O.2   122  SER122     -0.2717
     29  CB        28.3650   -2.0180   -0.2870 C.3   122  SER122      0.2103
     30  OG        29.5100   -1.8890    0.5300 O.3   122  SER122     -0.2182
     31  N         27.0620   -1.2090   -3.0690 N.am  123  ASN123     -0.1960
     32  CA        26.0350   -1.5700   -4.0260 C.3   123  ASN123      0.1804
     33  C         25.9010   -3.0940   -3.9180 C.2   123  ASN123      0.2463
     34  O         26.8690   -3.8260   -4.1580 O.2   123  ASN123     -0.2730
     35  CB        26.4660   -1.1040   -5.4120 C.3   123  ASN123      0.1195
     36  CG        25.6020   -1.6570   -6.5320 C.2   123  ASN123      0.2630
     37  OD1       25.5750   -1.0900   -7.6240 O.2   123  ASN123     -0.2716
     38  ND2       24.9080   -2.7720   -6.2870 N.am  123  ASN123     -0.0877
     39  N         24.6990   -3.5840   -3.5590 N.am  124  PRO124     -0.2716
     40  CA        24.3920   -4.9970   -3.3300 C.3   124  PRO124      0.1536
     41  C         24.6780   -5.9630   -4.4800 C.2   124  PRO124      0.2598
     42  O         25.0230   -7.1110   -4.2250 O.2   124  PRO124     -0.2715
     43  CB        22.9020   -4.9750   -2.9680 C.3   124  PRO124      0.0310
     44  CG        22.3800   -3.7760   -3.6790 C.3   124  PRO124      0.0237
     45  CD        23.4770   -2.7640   -3.4820 C.3   124  PRO124      0.0939
     46  N         24.5600   -5.5070   -5.7270 N.am  125  TYR125     -0.1961
     47  CA        24.8000   -6.3550   -6.9120 C.3   125  TYR125      0.1756
     48  C         26.2500   -6.5180   -7.3520 C.2   125  TYR125      0.2461
     49  O         27.0590   -5.6150   -7.1840 O.2   125  TYR125     -0.2730
     50  CB        24.0020   -5.8160   -8.1070 C.3   125  TYR125      0.0574
     51  CG        22.5170   -5.8300   -7.8550 C.ar  125  TYR125     -0.0198
     52  CD1       21.8640   -4.7140   -7.3410 C.ar  125  TYR125     -0.0009
     53  CD2       21.7720   -6.9840   -8.0720 C.ar  125  TYR125     -0.0009
     54  CE1       20.4980   -4.7490   -7.0500 C.ar  125  TYR125      0.0417
     55  CE2       20.4140   -7.0310   -7.7770 C.ar  125  TYR125      0.0417
     56  CZ        19.7840   -5.9130   -7.2610 C.ar  125  TYR125      0.1957
     57  OH        18.4440   -5.9710   -6.9680 O.3   125  TYR125     -0.2866
     58  N         26.5900   -7.6790   -7.9340 N.am  126  PRO126     -0.2716
     59  CA        27.9380   -7.8700   -8.4960 C.3   126  PRO126      0.1521
     60  C         28.0880   -6.9430   -9.6940 C.2   126  PRO126      0.2440
     61  O         27.0950   -6.5850  -10.3160 O.2   126  PRO126     -0.2731
     62  CB        27.9270   -9.3290   -8.9450 C.3   126  PRO126      0.0310
     63  CG        26.8910   -9.9730   -8.0780 C.3   126  PRO126      0.0237
     64  CD        25.8190   -8.9310   -7.9700 C.3   126  PRO126      0.0939
     65  N         29.3210   -6.5420  -10.0270 N.am  127  PRO127     -0.2727
     66  CA        29.5570   -5.6480  -11.1660 C.3   127  PRO127      0.1402
     67  C         29.0990   -6.2160  -12.4980 C.2   127  PRO127      0.2269
     68  O         28.7730   -5.4600  -13.4070 O.2   127  PRO127     -0.2865
     69  CB        31.0700   -5.4640  -11.1460 C.3   127  PRO127      0.0296
     70  CG        31.4250   -5.6680   -9.7320 C.3   127  PRO127      0.0237
     71  CD        30.5830   -6.8330   -9.3330 C.3   127  PRO127      0.0939
@<TRIPOS>BOND
     1    68    67    2
     2    67    66    1
     3    66    69    1
     4    66    65    1
     5    69    70    1
     6    61    60    2
     7    65    60   am
     8    65    71    1
     9    70    71    1
    10    60    59    1
    11    62    59    1
    12    62    63    1
    13    59    58    1
    14    50    51    1
    15    50    47    1
    16    63    64    1
    17    53    51   ar
    18    53    55   ar
    19    64    58    1
    20    58    48   am
    21    51    52   ar
    22    55    56   ar
    23    37    36    2
    24    48    49    2
    25    48    47    1
    26    52    54   ar
    27    56    54   ar
    28    56    57    1
    29    47    46    1
    30    36    38   am
    31    36    35    1
    32    46    41   am
    33    35    32    1
    34    41    42    2
    35    41    40    1
    36    34    33    2
    37    32    33    1
    38    32    31    1
    39    33    39   am
    40    44    45    1
    41    44    43    1
    42    39    45    1
    43    39    40    1
    44    40    43    1
    45    31    27   am
    46    27    28    2
    47    27    26    1
    48    11    10    1
    49    11    12    1
    50     1     2    1
    51    26    29    1
    52    26    25    1
    53    10     7    1
    54    12     6    1
    55    29    30    1
    56     6     3   am
    57     6     7    1
    58     2     3    1
    59     2     5    1
    60     3     4    2
    61     7     8    1
    62     8    13   am
    63     8     9    2
    64    13    14    1
    65    16    15    2
    66    24    22   am
    67    14    15    1
    68    15    17   am
    69    22    21    1
    70    22    23    2
    71    21    18    1
    72    17    18    1
    73    20    19    2
    74    18    19    1
