@<TRIPOS>MOLECULE
tmp/3bpmA00.pdb
 132 130 0 0 0
SMALL
GASTEIGER

@<TRIPOS>ATOM
      1  N          3.8770   14.8420  -31.1450 N.3    38  GLN38      -0.1245
      2  CA         5.1380   14.4460  -30.5330 C.3    38  GLN38       0.1566
      3  C          5.5520   13.0300  -30.9040 C.2    38  GLN38       0.2260
      4  O          6.6790   12.6380  -30.5940 O.2    38  GLN38      -0.2867
      5  CB         5.0670   14.5490  -29.0110 C.3    38  GLN38       0.0367
      6  CG         4.1490   13.5490  -28.3430 C.3    38  GLN38       0.0905
      7  CD         3.8050   13.9930  -26.9240 C.2    38  GLN38       0.2608
      8  OE1        3.2490   15.0800  -26.7120 O.2    38  GLN38      -0.2717
      9  NE2        4.1570   13.1790  -25.9500 N.am   38  GLN38      -0.0878
     10  N          8.5200   10.9050  -25.3640 N.3    42  GLY42      -0.1225
     11  CA         7.8990   11.5510  -24.2210 C.3    42  GLY42       0.1811
     12  C          8.2760   13.0120  -24.0830 C.2    42  GLY42       0.2280
     13  O          8.7140   13.4170  -23.0130 O.2    42  GLY42      -0.2866
     14  N          6.2210   15.7650  -24.3290 N.3    44  CYS44      -0.1221
     15  CA         5.1160   16.6910  -24.0600 C.3    44  CYS44       0.1808
     16  C          5.5810   17.9780  -23.3640 C.2    44  CYS44       0.2601
     17  O          5.0660   19.0600  -23.6690 O.2    44  CYS44      -0.2717
     18  CB         4.0240   16.0160  -23.2630 C.3    44  CYS44       0.0970
     19  SG         4.5450   15.3940  -21.6720 S.3    44  CYS44      -0.0800
     20  N          6.5620   17.8680  -22.4610 N.am   45  TRP45      -0.1976
     21  CA         7.0920   19.0360  -21.7510 C.3    45  TRP45       0.1640
     22  C          7.5940   20.0950  -22.7370 C.2    45  TRP45       0.2290
     23  O          7.4390   21.3130  -22.5330 O.2    45  TRP45      -0.2864
     24  CB         8.1920   18.6590  -20.7530 C.3    45  TRP45       0.0576
     25  CG         9.2930   17.9280  -21.3560 C.ar   45  TRP45       0.0006
     26  CD1        9.3630   16.5960  -21.5570 C.ar   45  TRP45       0.0946
     27  CD2       10.5040   18.4780  -21.8590 C.ar   45  TRP45       0.0152
     28  NE1       10.5360   16.2710  -22.1550 N.ar   45  TRP45      -0.2442
     29  CE2       11.2570   17.4160  -22.3690 C.ar   45  TRP45       0.0810
     30  CE3       11.0170   19.7700  -21.9430 C.ar   45  TRP45       0.0012
     31  CZ2       12.5080   17.6010  -22.9490 C.ar   45  TRP45       0.0191
     32  CZ3       12.2610   19.9480  -22.5040 C.ar   45  TRP45       0.0001
     33  CH2       12.9870   18.8750  -23.0100 C.ar   45  TRP45       0.0015
     34  N         14.8130   15.4460  -19.6390 N.3    80  ASN80      -0.1240
     35  CA        15.2560   14.1470  -20.1130 C.3    80  ASN80       0.1653
     36  C         14.8480   13.8250  -21.5250 C.2    80  ASN80       0.2266
     37  O         14.4550   12.7060  -21.8050 O.2    80  ASN80      -0.2867
     38  CB        14.6660   13.0230  -19.2680 C.3    80  ASN80       0.1155
     39  CG        15.1590   13.0190  -17.8640 C.2    80  ASN80       0.2627
     40  OD1       15.6470   14.0250  -17.3530 O.2    80  ASN80      -0.2716
     41  ND2       15.0200   11.8710  -17.2100 N.am   80  ASN80      -0.0877
     42  N         13.2300   12.6510  -24.4470 N.3    82  CYS82      -0.1221
     43  CA        12.0650   11.8520  -24.6690 C.3    82  CYS82       0.1808
     44  C         11.6410   11.0620  -23.4520 C.2    82  CYS82       0.2601
     45  O         10.7180   10.2350  -23.5530 O.2    82  CYS82      -0.2717
     46  CB        12.3690   10.8320  -25.7640 C.3    82  CYS82       0.0970
     47  SG        12.4730   11.4730  -27.4350 S.3    82  CYS82      -0.0800
     48  N         12.3290   11.2510  -22.3260 N.am   83  TYR83      -0.1962
     49  CA        11.9680   10.5370  -21.1020 C.3    83  TYR83       0.1771
     50  C         11.4030   11.5120  -20.0810 C.2    83  TYR83       0.2620
     51  O         11.5600   11.3420  -18.8770 O.2    83  TYR83      -0.2715
     52  CB        13.1540    9.7810  -20.5580 C.3    83  TYR83       0.0574
     53  CG        13.8030    8.9410  -21.6030 C.ar   83  TYR83      -0.0198
     54  CD1       15.0610    9.2210  -22.0880 C.ar   83  TYR83      -0.0009
     55  CD2       13.1410    7.8620  -22.1210 C.ar   83  TYR83      -0.0009
     56  CE1       15.6380    8.4390  -23.0680 C.ar   83  TYR83       0.0417
     57  CE2       13.7060    7.0690  -23.0840 C.ar   83  TYR83       0.0417
     58  CZ        14.9500    7.3640  -23.5700 C.ar   83  TYR83       0.1957
     59  OH        15.4640    6.5020  -24.5220 O.3    83  TYR83      -0.2866
     60  N         10.7320   12.5280  -20.5760 N.am   84  GLY84      -0.1940
     61  CA        10.0000   13.4320  -19.7050 C.3    84  GLY84       0.2014
     62  C         10.7560   14.6650  -19.2630 C.2    84  GLY84       0.2639
     63  O         11.9610   14.7400  -19.3890 O.2    84  GLY84      -0.2714
     64  N         10.0130   15.6490  -18.7590 N.am   85  GLY85      -0.1939
     65  CA        10.6060   16.8350  -18.1820 C.3    85  GLY85       0.2014
     66  C          9.6430   17.6740  -17.3660 C.2    85  GLY85       0.2639
     67  O          8.5990   17.1970  -16.9390 O.2    85  GLY85      -0.2714
     68  N         10.0400   18.9370  -17.1830 N.am   86  TYR86      -0.1959
     69  CA         9.3910   19.8990  -16.3290 C.3    86  TYR86       0.1771
     70  C          9.1880   21.2570  -17.0080 C.2    86  TYR86       0.2619
     71  O         10.0850   21.7750  -17.6780 O.2    86  TYR86      -0.2715
     72  CB        10.2420   20.1240  -15.1000 C.3    86  TYR86       0.0574
     73  CG        10.4040   18.8970  -14.2680 C.ar   86  TYR86      -0.0198
     74  CD1       11.5360   18.1060  -14.3840 C.ar   86  TYR86      -0.0009
     75  CD2        9.4230   18.5360  -13.3470 C.ar   86  TYR86      -0.0009
     76  CE1       11.6960   16.9590  -13.5890 C.ar   86  TYR86       0.0417
     77  CE2        9.5600   17.4060  -12.5620 C.ar   86  TYR86       0.0417
     78  CZ        10.7000   16.6220  -12.6870 C.ar   86  TYR86       0.1957
     79  OH        10.8080   15.5000  -11.9250 O.3    86  TYR86      -0.2866
     80  N          8.0010   21.8440  -16.7970 N.am   87  ILE87      -0.1977
     81  CA         7.6620   23.0820  -17.4550 C.3    87  ILE87       0.1596
     82  C          8.6370   24.1930  -17.1180 C.2    87  ILE87       0.2287
     83  O          9.1580   24.8390  -18.0370 O.2    87  ILE87      -0.2864
     84  CB         6.2420   23.5280  -17.1950 C.3    87  ILE87       0.0276
     85  CG1        5.2640   22.4870  -17.7740 C.3    87  ILE87       0.0022
     86  CG2        6.0310   24.8950  -17.8470 C.3    87  ILE87       0.0022
     87  CD1        3.9570   22.3990  -17.0780 C.3    87  ILE87       0.0001
     88  N          0.3070   21.0800  -16.5750 N.3   151  SER151     -0.1217
     89  CA         0.3290   19.6490  -16.3510 C.3   151  SER151      0.1889
     90  C         -1.1050   19.1170  -16.3440 C.2   151  SER151      0.2288
     91  O         -2.0460   19.8900  -16.1600 O.2   151  SER151     -0.2866
     92  CB         0.9960   19.3560  -15.0060 C.3   151  SER151      0.2089
     93  OG         0.3900   20.0620  -13.9500 O.3   151  SER151     -0.2183
     94  N         -0.2880   13.7730  -11.8800 N.3   174  PRO174     -0.2102
     95  CA         0.0880   14.5720  -13.0530 C.3   174  PRO174      0.1504
     96  C          1.2810   13.9660  -13.8180 C.2   174  PRO174      0.2576
     97  O          2.3060   13.6520  -13.2150 O.2   174  PRO174     -0.2718
     98  CB         0.4380   15.9320  -12.4430 C.3   174  PRO174      0.0282
     99  CG        -0.3650   15.9450  -11.1400 C.3   174  PRO174      0.0208
    100  CD        -0.2010   14.5560  -10.6400 C.3   174  PRO174      0.0893
    101  N          1.1230   13.8130  -15.1240 N.am  175  ASN175     -0.1961
    102  CA         2.0190   12.9940  -15.9060 C.3   175  ASN175      0.1819
    103  C          2.1820   13.4210  -17.3760 C.2   175  ASN175      0.2621
    104  O          2.9600   12.8390  -18.1120 O.2   175  ASN175     -0.2715
    105  CB         1.5280   11.5300  -15.8490 C.3   175  ASN175      0.1195
    106  CG         0.1020   11.3510  -16.3400 C.2   175  ASN175      0.2630
    107  OD1       -0.5540   12.2760  -16.7950 O.2   175  ASN175     -0.2716
    108  ND2       -0.3770   10.1730  -16.2300 N.am  175  ASN175     -0.0877
    109  N          1.4640   14.4400  -17.8030 N.am  176  HIS176     -0.1959
    110  CA         1.5200   14.8650  -19.1750 C.3   176  HIS176      0.1787
    111  C          1.4450   16.3830  -19.1460 C.2   176  HIS176      0.2620
    112  O          0.9830   16.9560  -18.1720 O.2   176  HIS176     -0.2715
    113  CB         0.3500   14.2300  -19.9600 C.3   176  HIS176      0.0785
    114  CG         0.4340   14.4290  -21.4410 C.ar  176  HIS176      0.0821
    115  ND1        1.4500   13.8970  -22.2080 N.ar  176  HIS176     -0.2267
    116  CD2       -0.3620   15.1140  -22.3000 C.ar  176  HIS176      0.1154
    117  CE1        1.2680   14.2380  -23.4760 C.ar  176  HIS176      0.1986
    118  NE2        0.1800   14.9840  -23.5590 N.ar  176  HIS176     -0.2212
    119  N          1.9170   17.0200  -20.2150 N.am  177  ALA177     -0.1977
    120  CA         1.9660   18.4960  -20.3210 C.3   177  ALA177      0.1597
    121  C          1.1900   18.9190  -21.5610 C.2   177  ALA177      0.2287
    122  O          1.4560   18.4080  -22.6650 O.2   177  ALA177     -0.2864
    123  CB         3.3950   18.9810  -20.4280 C.3   177  ALA177      0.0319
    124  N          0.7610   22.3630  -12.1850 N.3   236  GLU236     -0.1245
    125  CA         1.8080   23.1980  -12.6680 C.3   236  GLU236      0.1567
    126  C          1.1860   23.9740  -13.8030 C.2   236  GLU236      0.2260
    127  O          0.5470   23.3790  -14.6540 O.2   236  GLU236     -0.2867
    128  CB         3.0060   22.3700  -13.1470 C.3   236  GLU236      0.0388
    129  CG         3.8460   21.7930  -11.9950 C.3   236  GLU236      0.1160
    130  CD         4.5780   22.8490  -11.1840 C.2   236  GLU236      0.3649
    131  OE1        5.6010   23.3600  -11.6730 O.co2 236  GLU236     -0.2457
    132  OE2        4.1500   23.1590  -10.0450 O.co2 236  GLU236     -0.2457
@<TRIPOS>BOND
     1     1     2    1
     2     3     4    2
     3     3     2    1
     4     2     5    1
     5     5     6    1
     6     6     7    1
     7    47    46    1
     8     7     8    2
     9     7     9   am
    10    46    43    1
    11    10    11    1
    12    43    42    1
    13    43    44    1
    14    59    58    1
    15    14    15    1
    16    11    12    1
    17    12    13    2
    18    15    16    1
    19    15    18    1
    20    17    16    2
    21    58    57   ar
    22    58    56   ar
    23   118   117   ar
    24   118   116   ar
    25    45    44    2
    26   117   115   ar
    27    44    48   am
    28    16    20   am
    29    18    19    1
    30    57    55   ar
    31    56    54   ar
    32    33    31   ar
    33    33    32   ar
    34    31    29   ar
    35    22    23    2
    36    22    21    1
    37   122   121    2
    38    32    30   ar
    39    20    21    1
    40    29    28   ar
    41    29    27   ar
    42    48    49    1
    43   116   114   ar
    44   115   114   ar
    45    28    26   ar
    46    55    53   ar
    47    54    53   ar
    48    30    27   ar
    49    27    25   ar
    50    37    36    2
    51    21    24    1
    52    53    52    1
    53   121   120    1
    54    26    25   ar
    55    36    35    1
    56   114   113    1
    57    25    24    1
    58    49    52    1
    59    49    50    1
    60    60    50   am
    61    60    61    1
    62   123   120    1
    63   120   119    1
    64   119   111   am
    65    35    34    1
    66    35    38    1
    67    50    51    2
    68   113   110    1
    69    61    62    1
    70    63    62    2
    71    38    39    1
    72    62    64   am
    73   110   111    1
    74   110   109    1
    75   111   112    2
    76    64    65    1
    77    65    66    1
    78   104   103    2
    79    83    82    2
    80    39    40    2
    81    39    41   am
    82    86    84    1
    83   109   103   am
    84    85    84    1
    85    85    87    1
    86    71    70    2
    87    81    84    1
    88    81    82    1
    89    81    80    1
    90   103   102    1
    91    66    68   am
    92    66    67    2
    93    68    69    1
    94    70    80   am
    95    70    69    1
    96   107   106    2
    97    88    89    1
    98    89    90    1
    99    89    92    1
   100    90    91    2
   101   106   108   am
   102   106   105    1
   103    69    72    1
   104   102   105    1
   105   102   101    1
   106   101    96   am
   107    72    73    1
   108    92    93    1
   109   127   126    2
   110    74    73   ar
   111    74    76   ar
   112    73    75   ar
   113    96    97    2
   114    96    95    1
   115   126   125    1
   116    76    78   ar
   117    75    77   ar
   118   128   125    1
   119   128   129    1
   120    95    98    1
   121    95    94    1
   122    78    77   ar
   123    78    79    1
   124   125   124    1
   125    98    99    1
   126   129   130    1
   127    94   100    1
   128   131   130   ar
   129   130   132   ar
   130    99   100    1
