@<TRIPOS>MOLECULE
tmp/3bprC00.pdb
 129 124 0 0 0
SMALL
GASTEIGER

@<TRIPOS>ATOM
      1  N         10.7380  -46.1370   11.8120 N.3    19  LEU19      -0.1231
      2  CA        11.0480  -46.7850   10.5300 C.3    19  LEU19       0.1693
      3  C         11.6770  -48.1680   10.6820 C.2    19  LEU19       0.2592
      4  O         11.8240  -48.9050    9.6920 O.2    19  LEU19      -0.2718
      5  CB        11.9470  -45.9030    9.6850 C.3    19  LEU19       0.0284
      6  CG        11.5560  -44.4290    9.6660 C.3    19  LEU19       0.0019
      7  CD1       12.6020  -43.6420    8.9020 C.3    19  LEU19       0.0001
      8  CD2       10.1530  -44.2100    9.0880 C.3    19  LEU19       0.0001
      9  N         12.0310  -48.5200   11.9200 N.am   20  GLY20      -0.1957
     10  CA        12.6610  -49.8050   12.2040 C.3    20  GLY20       0.1869
     11  C         13.2550  -49.8790   13.5950 C.2    20  GLY20       0.2309
     12  O         13.6380  -48.8470   14.1810 O.2    20  GLY20      -0.2863
     13  N         15.2540  -46.5860   14.5980 N.3    27  VAL27      -0.1245
     14  CA        15.3830  -45.4650   13.6720 C.3    27  VAL27       0.1561
     15  C         14.0040  -44.8050   13.3970 C.2    27  VAL27       0.2260
     16  O         13.0030  -45.5010   13.1640 O.2    27  VAL27      -0.2867
     17  CB        16.1580  -45.8790   12.3810 C.3    27  VAL27       0.0252
     18  CG1       15.5300  -47.1140   11.7520 C.3    27  VAL27       0.0019
     19  CG2       16.2670  -44.7200   11.3770 C.3    27  VAL27       0.0019
     20  N         16.6470  -38.6030    9.3570 N.3    43  ALA43      -0.1245
     21  CA        16.4560  -39.8680   10.0750 C.3    43  ALA43       0.1562
     22  C         17.1880  -39.8400   11.4340 C.2    43  ALA43       0.2260
     23  O         18.3300  -39.3790   11.5260 O.2    43  ALA43      -0.2867
     24  CB        16.9120  -41.0330    9.2310 C.3    43  ALA43       0.0290
     25  N         18.5410  -41.7820   14.7400 N.3    45  LYS45      -0.1245
     26  CA        18.9730  -43.0430   15.3310 C.3    45  LYS45       0.1561
     27  C         19.1600  -42.9060   16.8260 C.2    45  LYS45       0.2260
     28  O         19.8960  -42.0310   17.2770 O.2    45  LYS45      -0.2867
     29  CB        20.3130  -43.4300   14.7430 C.3    45  LYS45       0.0271
     30  CG        20.2920  -44.5190   13.7120 C.3    45  LYS45       0.0035
     31  CD        21.7230  -44.8150   13.3060 C.3    45  LYS45       0.0206
     32  CE        21.9300  -46.2750   13.0580 C.3    45  LYS45       0.1093
     33  NZ        23.3690  -46.6180   13.3070 N.3    45  LYS45      -0.1314
     34  N         27.7630  -40.8210    3.9490 N.3    68  ILE68      -0.1245
     35  CA        26.6720  -40.0610    4.5860 C.3    68  ILE68       0.1561
     36  C         27.2450  -38.9830    5.4890 C.2    68  ILE68       0.2260
     37  O         28.3100  -39.1630    6.0640 O.2    68  ILE68      -0.2867
     38  CB        25.7140  -41.0020    5.3930 C.3    68  ILE68       0.0252
     39  CG1       24.3260  -40.3900    5.5440 C.3    68  ILE68       0.0019
     40  CG2       26.2930  -41.4040    6.7510 C.3    68  ILE68       0.0019
     41  CD1       23.2220  -41.4450    5.6540 C.3    68  ILE68       0.0001
     42  N         20.6640  -37.6870   10.8270 N.3    84  LEU84      -0.1231
     43  CA        21.1670  -37.9140    9.4940 C.3    84  LEU84       0.1678
     44  C         20.1180  -37.5180    8.4800 C.2    84  LEU84       0.2434
     45  O         18.9220  -37.5720    8.7800 O.2    84  LEU84      -0.2733
     46  CB        21.5000  -39.3890    9.3460 C.3    84  LEU84       0.0284
     47  CG        22.5970  -39.8160   10.3210 C.3    84  LEU84       0.0019
     48  CD1       22.2390  -41.0870   11.0660 C.3    84  LEU84       0.0001
     49  CD2       23.9490  -39.9320    9.6150 C.3    84  LEU84       0.0001
     50  N         20.5500  -37.1130    7.2740 N.am   85  PRO85      -0.2718
     51  CA        19.5950  -36.8270    6.2170 C.3    85  PRO85       0.1535
     52  C         18.7290  -38.0350    5.9590 C.2    85  PRO85       0.2599
     53  O         19.2200  -39.1590    5.9890 O.2    85  PRO85      -0.2715
     54  CB        20.4770  -36.5710    5.0040 C.3    85  PRO85       0.0310
     55  CG        21.8380  -37.0120    5.3860 C.3    85  PRO85       0.0237
     56  CD        21.9340  -36.8840    6.8410 C.3    85  PRO85       0.0939
     57  N         17.4420  -37.8190    5.7330 N.am   86  PHE86      -0.1960
     58  CA        16.5510  -38.9070    5.3540 C.3    86  PHE86       0.1771
     59  C         16.8010  -39.2820    3.8880 C.2    86  PHE86       0.2619
     60  O         16.9550  -38.4070    3.0380 O.2    86  PHE86      -0.2715
     61  CB        15.1090  -38.4840    5.5950 C.3    86  PHE86       0.0574
     62  CG        14.0810  -39.4750    5.1270 C.ar   86  PHE86      -0.0200
     63  CD1       13.7690  -40.5860    5.8960 C.ar   86  PHE86      -0.0042
     64  CD2       13.3800  -39.2630    3.9310 C.ar   86  PHE86      -0.0042
     65  CE1       12.8070  -41.4880    5.4790 C.ar   86  PHE86      -0.0003
     66  CE2       12.4010  -40.1650    3.5070 C.ar   86  PHE86      -0.0003
     67  CZ        12.1220  -41.2830    4.2830 C.ar   86  PHE86      -0.0000
     68  N         16.8680  -40.5840    3.6210 N.am   87  MET87      -0.1963
     69  CA        17.0930  -41.1380    2.2940 C.3    87  MET87       0.1736
     70  C         15.8510  -41.9280    1.9180 C.2    87  MET87       0.2616
     71  O         15.5850  -42.9880    2.5070 O.2    87  MET87      -0.2715
     72  CB        18.2540  -42.1240    2.3300 C.3    87  MET87       0.0427
     73  CG        19.5240  -41.6110    2.9490 C.3    87  MET87       0.0599
     74  SD        20.5370  -40.8580    1.6870 S.3    87  MET87      -0.1393
     75  CE        21.8790  -40.2360    2.7010 C.3    87  MET87       0.0692
     76  N         15.1040  -41.4300    0.9320 N.am   88  LYS88      -0.1963
     77  CA        13.7550  -41.9650    0.6580 C.3    88  LYS88       0.1728
     78  C         13.8130  -43.3580    0.0560 C.2    88  LYS88       0.2616
     79  O         12.9030  -44.1560    0.2680 O.2    88  LYS88      -0.2715
     80  CB        12.8960  -41.0220   -0.2040 C.3    88  LYS88       0.0311
     81  CG        13.4170  -40.8660   -1.6180 C.3    88  LYS88       0.0038
     82  CD        12.3530  -40.4550   -2.5830 C.3    88  LYS88       0.0206
     83  CE        12.8700  -40.5170   -4.0080 C.3    88  LYS88       0.1093
     84  NZ        11.9210  -39.9160   -4.9980 N.3    88  LYS88      -0.1314
     85  N         14.8850  -43.6640   -0.6720 N.am   89  TYR89      -0.1960
     86  CA        14.9930  -44.9820   -1.2940 C.3    89  TYR89       0.1771
     87  C         15.4010  -46.0550   -0.3050 C.2    89  TYR89       0.2620
     88  O         15.2980  -47.2280   -0.6150 O.2    89  TYR89      -0.2715
     89  CB        15.8880  -44.9660   -2.5340 C.3    89  TYR89       0.0574
     90  CG        15.2680  -44.2260   -3.7050 C.ar   89  TYR89      -0.0198
     91  CD1       13.9740  -44.5350   -4.1310 C.ar   89  TYR89      -0.0009
     92  CD2       15.9690  -43.2250   -4.3890 C.ar   89  TYR89      -0.0009
     93  CE1       13.3830  -43.8680   -5.1990 C.ar   89  TYR89       0.0417
     94  CE2       15.4000  -42.5570   -5.4670 C.ar   89  TYR89       0.0417
     95  CZ        14.0970  -42.8780   -5.8650 C.ar   89  TYR89       0.1957
     96  OH        13.4840  -42.2200   -6.9140 O.3    89  TYR89      -0.2866
     97  N         15.8340  -45.6510    0.8900 N.am   90  GLY90      -0.1940
     98  CA        16.1140  -46.5780    1.9860 C.3    90  GLY90       0.2014
     99  C         17.4380  -47.2800    1.8250 C.2    90  GLY90       0.2638
    100  O         18.3280  -46.7900    1.1360 O.2    90  GLY90      -0.2714
    101  N         17.5950  -48.4330    2.4550 N.am   91  ASP91      -0.1971
    102  CA        18.8790  -49.1050    2.4050 C.3    91  ASP91       0.1709
    103  C         18.9800  -49.9660    1.1500 C.2    91  ASP91       0.2293
    104  O         17.9640  -50.4390    0.6330 O.2    91  ASP91      -0.2864
    105  CB        19.0940  -49.9590    3.6430 C.3    91  ASP91       0.1436
    106  CG        18.1540  -51.1230    3.6880 C.2    91  ASP91       0.3671
    107  OD1       16.9790  -50.9280    4.0670 O.co2  91  ASP91      -0.2456
    108  OD2       18.5760  -52.2310    3.3140 O.co2  91  ASP91      -0.2456
    109  N         23.0250  -46.7390    1.8860 N.3   143  MET143     -0.1245
    110  CA        21.7620  -46.0760    1.5920 C.3   143  MET143      0.1570
    111  C         21.7330  -45.6530    0.1270 C.2   143  MET143      0.2261
    112  O         22.7790  -45.4560   -0.4840 O.2   143  MET143     -0.2867
    113  CB        21.6230  -44.8410    2.4880 C.3   143  MET143      0.0387
    114  CG        21.7180  -45.1430    3.9600 C.3   143  MET143      0.0595
    115  SD        20.4650  -46.3130    4.4990 S.3   143  MET143     -0.1393
    116  CE        18.9840  -45.3960    4.1300 C.3   143  MET143      0.0692
    117  N         26.9310  -45.7570    5.4330 N.3   153  ALA153     -0.1231
    118  CA        26.3170  -45.2830    6.6800 C.3   153  ALA153      0.1694
    119  C         26.6590  -46.1900    7.8690 C.2   153  ALA153      0.2592
    120  O         27.4160  -47.1360    7.7170 O.2   153  ALA153     -0.2718
    121  CB        24.7910  -45.1570    6.5050 C.3   153  ALA153      0.0304
    122  N         26.1350  -45.8730    9.0530 N.am  154  ASP154     -0.1974
    123  CA        26.1640  -46.7780   10.2150 C.3   154  ASP154      0.1709
    124  C         27.5450  -47.1420   10.7360 C.2   154  ASP154      0.2293
    125  O         27.6960  -48.0570   11.5800 O.2   154  ASP154     -0.2864
    126  CB        25.4240  -48.0780    9.8940 C.3   154  ASP154      0.1436
    127  CG        24.2040  -48.2810   10.7620 C.2   154  ASP154      0.3671
    128  OD1       23.1650  -47.5520   10.5910 O.co2 154  ASP154     -0.2456
    129  OD2       24.3050  -49.1930   11.6150 O.co2 154  ASP154     -0.2456
@<TRIPOS>BOND
     1    96    95    1
     2    95    94   ar
     3    95    93   ar
     4    94    92   ar
     5    93    91   ar
     6    84    83    1
     7    92    90   ar
     8    91    90   ar
     9    83    82    1
    10    90    89    1
    11    82    81    1
    12    89    86    1
    13    81    80    1
    14    86    85    1
    15    86    87    1
    16    85    78   am
    17    88    87    2
    18   112   111    2
    19    87    97   am
    20    80    77    1
    21    78    79    2
    22    78    77    1
    23   111   110    1
    24   104   103    2
    25    77    76    1
    26    97    98    1
    27    76    70   am
    28   100    99    2
    29   103   102    1
    30   110   109    1
    31   110   113    1
    32    74    75    1
    33    74    73    1
    34    99    98    1
    35    99   101   am
    36    70    69    1
    37    70    71    2
    38    69    72    1
    39    69    68    1
    40    72    73    1
    41   102   101    1
    42   102   105    1
    43   113   114    1
    44    60    59    2
    45   108   106   ar
    46    66    64   ar
    47    66    67   ar
    48    68    59   am
    49   105   106    1
    50   106   107   ar
    51    59    58    1
    52    64    62   ar
    53    34    35    1
    54   114   115    1
    55   116   115    1
    56    67    65   ar
    57    35    38    1
    58    35    36    1
    59    54    55    1
    60    54    51    1
    61    62    61    1
    62    62    63   ar
    63    58    61    1
    64    58    57    1
    65    55    56    1
    66    38    39    1
    67    38    40    1
    68   117   118    1
    69    65    63   ar
    70    36    37    2
    71    39    41    1
    72    57    52   am
    73    52    53    2
    74    52    51    1
    75    51    50    1
    76   121   118    1
    77   118   119    1
    78    56    50    1
    79    50    44   am
    80   120   119    2
    81   119   122   am
    82    44    45    2
    83    44    43    1
    84     7     6    1
    85   122   123    1
    86     8     6    1
    87    24    21    1
    88    46    43    1
    89    46    47    1
    90    20    21    1
    91    43    42    1
    92    49    47    1
    93     6     5    1
    94     5     2    1
    95     4     3    2
    96   126   123    1
    97   126   127    1
    98    21    22    1
    99   123   124    1
   100    47    48    1
   101     2     3    1
   102     2     1    1
   103   128   127   ar
   104     3     9   am
   105   124   125    2
   106   127   129   ar
   107    19    17    1
   108    22    23    2
   109    18    17    1
   110     9    10    1
   111    10    11    1
   112    17    14    1
   113    32    31    1
   114    32    33    1
   115    16    15    2
   116    31    30    1
   117    15    14    1
   118    11    12    2
   119    14    13    1
   120    30    29    1
   121    25    26    1
   122    29    26    1
   123    26    27    1
   124    27    28    2
