@<TRIPOS>MOLECULE
tmp/3bptA00.pdb
 120 113 0 0 0
SMALL
GASTEIGER

@<TRIPOS>ATOM
      1  N         45.7310    0.7690    1.5720 N.3    25  PHE25      -0.1227
      2  CA        45.2390    1.1320    2.8750 C.3    25  PHE25       0.1736
      3  C         44.8460   -0.1420    3.6200 C.2    25  PHE25       0.2595
      4  O         43.9760   -0.1300    4.4550 O.2    25  PHE25      -0.2718
      5  CB        44.0240    2.0410    2.7200 C.3    25  PHE25       0.0547
      6  CG        44.3540    3.3840    2.0990 C.ar   25  PHE25      -0.0202
      7  CD1       44.8600    4.4120    2.8840 C.ar   25  PHE25      -0.0042
      8  CD2       44.1660    3.6250    0.7640 C.ar   25  PHE25      -0.0042
      9  CE1       45.1740    5.6570    2.3230 C.ar   25  PHE25      -0.0003
     10  CE2       44.4610    4.8580    0.2160 C.ar   25  PHE25      -0.0003
     11  CZ        44.9690    5.8680    0.9870 C.ar   25  PHE25      -0.0000
     12  N         45.5270   -1.2330    3.3120 N.am   26  LEU26      -0.1980
     13  CA        45.3130   -2.5440    3.9740 C.3    26  LEU26       0.1596
     14  C         43.8570   -2.9860    3.9650 C.2    26  LEU26       0.2287
     15  O         43.3460   -3.6080    4.9400 O.2    26  LEU26      -0.2864
     16  CB        45.8030   -2.4700    5.4090 C.3    26  LEU26       0.0297
     17  CG        47.2830   -2.0920    5.5520 C.3    26  LEU26       0.0022
     18  CD1       47.7000   -2.1560    7.0560 C.3    26  LEU26       0.0001
     19  CD2       48.1710   -2.9820    4.7100 C.3    26  LEU26       0.0001
     20  N         41.1450   -1.3680    4.4050 N.3    28  ALA28      -0.1245
     21  CA        40.3270   -0.8610    5.5090 C.3    28  ALA28       0.1562
     22  C         38.9080   -0.5570    4.9960 C.2    28  ALA28       0.2260
     23  O         38.7150    0.0460    3.9230 O.2    28  ALA28      -0.2867
     24  CB        40.9390    0.3790    6.1520 C.3    28  ALA28       0.0290
     25  N         42.5950   -4.6610    7.6720 N.3    64  ALA64      -0.1231
     26  CA        43.2100   -4.1560    8.9140 C.3    64  ALA64       0.1694
     27  C         42.2330   -3.5080    9.8830 C.2    64  ALA64       0.2593
     28  O         42.5720   -3.2060   11.0420 O.2    64  ALA64      -0.2718
     29  CB        44.3290   -3.1620    8.5900 C.3    64  ALA64       0.0304
     30  N         41.0130   -3.2540    9.4330 N.am   65  GLY65      -0.1942
     31  CA        40.0210   -2.6380   10.2770 C.3    65  GLY65       0.2014
     32  C         38.9730   -1.8290    9.5160 C.2    65  GLY65       0.2639
     33  O         39.0170   -1.7430    8.3030 O.2    65  GLY65      -0.2714
     34  N         37.9550   -1.3210   10.2000 N.am   66  GLY66      -0.1939
     35  CA        37.1180   -0.2440    9.6270 C.3    66  GLY66       0.2014
     36  C         37.9780    0.9880    9.5080 C.2    66  GLY66       0.2639
     37  O         38.9830    1.1280   10.2190 O.2    66  GLY66      -0.2714
     38  N         37.5990    1.9060    8.6320 N.am   67  ASP67      -0.1957
     39  CA        38.4760    3.0230    8.3250 C.3    67  ASP67       0.1840
     40  C         38.2130    4.1320    9.3470 C.2    67  ASP67       0.2621
     41  O         37.4940    5.0890    9.0660 O.2    67  ASP67      -0.2715
     42  CB        38.2850    3.5060    6.9080 C.3    67  ASP67       0.1450
     43  CG        39.3400    4.5620    6.5050 C.2    67  ASP67       0.3671
     44  OD1       39.8990    5.2410    7.4310 O.co2  67  ASP67      -0.2456
     45  OD2       39.5510    4.7710    5.2930 O.co2  67  ASP67      -0.2456
     46  N         38.8050    3.9740   10.5150 N.am   68  ILE68      -0.1977
     47  CA        38.5110    4.8500   11.6520 C.3    68  ILE68       0.1596
     48  C         39.1840    6.2070   11.5040 C.2    68  ILE68       0.2287
     49  O         38.7310    7.1870   12.0640 O.2    68  ILE68      -0.2864
     50  CB        38.8280    4.1950   13.0360 C.3    68  ILE68       0.0276
     51  CG1       40.3090    3.8310   13.1320 C.3    68  ILE68       0.0022
     52  CG2       37.8230    3.0410   13.3090 C.3    68  ILE68       0.0022
     53  CD1       40.7110    3.3850   14.5480 C.3    68  ILE68       0.0001
     54  N         40.2610   -5.8970   13.9170 N.3   111  GLY111     -0.1225
     55  CA        39.1080   -5.0020   14.1440 C.3   111  GLY111      0.1811
     56  C         37.9890   -5.2900   13.1450 C.2   111  GLY111      0.2280
     57  O         37.4710   -6.4180   13.0910 O.2   111  GLY111     -0.2866
     58  N         42.7350   -4.5130   18.2280 N.3   133  PRO133     -0.2102
     59  CA        43.6680   -3.5460   18.8000 C.3   133  PRO133      0.1504
     60  C         42.9920   -2.2480   19.2950 C.2   133  PRO133      0.2575
     61  O         43.6820   -1.2270   19.4590 O.2   133  PRO133     -0.2718
     62  CB        44.5340   -3.2110   17.6170 C.3   133  PRO133      0.0282
     63  CG        43.5910   -3.2240   16.4770 C.3   133  PRO133      0.0208
     64  CD        42.6420   -4.3910   16.7580 C.3   133  PRO133      0.0893
     65  N         41.6900   -2.2980   19.6310 N.am  134  GLU134     -0.1980
     66  CA        40.9350   -1.0620   19.8030 C.3   134  GLU134      0.1602
     67  C         41.2180   -0.3230   21.1220 C.2   134  GLU134      0.2287
     68  O         41.0080    0.9100   21.1790 O.2   134  GLU134     -0.2864
     69  CB        39.4510   -1.3160   19.5970 C.3   134  GLU134      0.0415
     70  CG        39.0560   -1.5540   18.1960 C.3   134  GLU134      0.1163
     71  CD        39.1620   -2.9960   17.7290 C.2   134  GLU134      0.3649
     72  OE1       39.6300   -3.8800   18.4490 O.co2 134  GLU134     -0.2457
     73  OE2       38.7130   -3.2350   16.5930 O.co2 134  GLU134     -0.2457
     74  N         43.9190    0.3770   22.2920 N.3   136  ALA136     -0.1231
     75  CA        45.0900    1.1950   22.0280 C.3   136  ALA136      0.1694
     76  C         44.7280    2.4880   21.2970 C.2   136  ALA136      0.2591
     77  O         45.5940    3.3810   21.1720 O.2   136  ALA136     -0.2718
     78  CB        46.0840    0.4180   21.1870 C.3   136  ALA136      0.0304
     79  N         43.5090    2.5530   20.7450 N.am  137  ILE137     -0.1980
     80  CA        43.0970    3.7220   19.9720 C.3   137  ILE137      0.1595
     81  C         41.8650    4.4230   20.5200 C.2   137  ILE137      0.2287
     82  O         41.3120    5.3060   19.8870 O.2   137  ILE137     -0.2864
     83  CB        42.9140    3.4150   18.4540 C.3   137  ILE137      0.0276
     84  CG1       41.7810    2.4250   18.2030 C.3   137  ILE137      0.0022
     85  CG2       44.2690    3.0060   17.7920 C.3   137  ILE137      0.0022
     86  CD1       40.4090    3.0170   18.0780 C.3   137  ILE137      0.0001
     87  N         38.9430    3.2030   21.4760 N.3   139  LEU139     -0.1245
     88  CA        37.6620    2.6350   21.1680 C.3   139  LEU139      0.1561
     89  C         37.4700    1.3610   22.0450 C.2   139  LEU139      0.2260
     90  O         37.7420    1.3810   23.2280 O.2   139  LEU139     -0.2867
     91  CB        37.5130    2.3770   19.6680 C.3   139  LEU139      0.0270
     92  CG        36.1050    2.2830   19.1140 C.3   139  LEU139      0.0019
     93  CD1       35.3040    3.5950   19.2670 C.3   139  LEU139      0.0001
     94  CD2       36.1100    1.8440   17.6600 C.3   139  LEU139      0.0001
     95  N         48.4710   -9.8910   19.6580 N.3   166  ARG166     -0.1245
     96  CA        48.4900  -10.3930   18.2960 C.3   166  ARG166      0.1563
     97  C         48.6870  -11.8860   18.2670 C.2   166  ARG166      0.2260
     98  O         49.5430  -12.4380   19.0210 O.2   166  ARG166     -0.2867
     99  CB        49.6100   -9.7640   17.5120 C.3   166  ARG166      0.0307
    100  CG        49.3110   -8.3920   16.9040 C.3   166  ARG166      0.0489
    101  CD        48.8340   -7.2700   17.8480 C.3   166  ARG166      0.2205
    102  NE        48.7440   -5.9940   17.0950 N.pl3 166  ARG166     -0.0865
    103  CZ        48.1920   -4.8560   17.5540 C.cat 166  ARG166      0.5346
    104  NH1       47.6070   -4.8210   18.7390 N.pl3 166  ARG166      0.1354
    105  NH2       48.1960   -3.7440   16.8120 N.pl3 166  ARG166      0.1354
    106  N         48.2860    6.6380   16.9650 N.3   308  VAL308     -0.1231
    107  CA        48.4800    5.3710   16.3190 C.3   308  VAL308      0.1692
    108  C         48.5250    5.4200   14.7960 C.2   308  VAL308      0.2591
    109  O         49.3700    4.7440   14.1620 O.2   308  VAL308     -0.2718
    110  CB        47.4140    4.3770   16.7870 C.3   308  VAL308      0.0266
    111  CG1       47.5440    3.0560   16.0150 C.3   308  VAL308      0.0020
    112  CG2       47.6000    4.1740   18.3090 C.3   308  VAL308      0.0020
    113  N         47.6170    6.1940   14.2090 N.am  309  LEU309     -0.1980
    114  CA        47.4120    6.1210   12.7590 C.3   309  LEU309      0.1596
    115  C         47.9980    7.2870   12.0040 C.2   309  LEU309      0.2287
    116  O         48.4320    7.1030   10.8700 O.2   309  LEU309     -0.2864
    117  CB        45.9210    5.9390   12.4080 C.3   309  LEU309      0.0297
    118  CG        45.2880    4.6330   12.8760 C.3   309  LEU309      0.0022
    119  CD1       43.8130    4.6280   12.5660 C.3   309  LEU309      0.0001
    120  CD2       46.0130    3.4500   12.2450 C.3   309  LEU309      0.0001
@<TRIPOS>BOND
     1    10     8   ar
     2    10    11   ar
     3     8     6   ar
     4    11     9   ar
     5     1     2    1
     6     6     5    1
     7     6     7   ar
     8     9     7   ar
     9     5     2    1
    10     2     3    1
    11    12     3   am
    12    12    13    1
    13     3     4    2
    14    23    22    2
    15    14    13    1
    16    14    15    2
    17    13    16    1
    18    20    21    1
    19    19    17    1
    20    22    21    1
    21    45    43   ar
    22    16    17    1
    23    21    24    1
    24    17    18    1
    25    43    42    1
    26    43    44   ar
    27    42    39    1
    28    25    26    1
    29    33    32    2
    30    39    38    1
    31    39    40    1
    32    29    26    1
    33    38    36   am
    34    26    27    1
    35    41    40    2
    36    40    46   am
    37    30    27   am
    38    30    31    1
    39    36    35    1
    40    36    37    2
    41    32    34   am
    42    32    31    1
    43    35    34    1
    44    27    28    2
    45    46    47    1
    46   116   115    2
    47    48    47    1
    48    48    49    2
    49    47    50    1
    50   115   114    1
    51   120   118    1
    52   117   114    1
    53   117   118    1
    54   119   118    1
    55   114   113    1
    56    50    51    1
    57    50    52    1
    58    57    56    2
    59    51    53    1
    60    56    55    1
    61    54    55    1
    62   109   108    2
    63   113   108   am
    64   108   107    1
    65   111   110    1
    66   107   110    1
    67   107   106    1
    68    63    64    1
    69    63    62    1
    70    73    71   ar
    71    64    58    1
    72   110   112    1
    73   105   103    1
    74   100    99    1
    75   100   101    1
    76   102   103    2
    77   102   101    1
    78    99    96    1
    79   103   104    1
    80    62    59    1
    81    94    92    1
    82    71    70    1
    83    71    72   ar
    84    85    83    1
    85    86    84    1
    86    70    69    1
    87    84    83    1
    88    58    59    1
    89    97    96    1
    90    97    98    2
    91    96    95    1
    92    83    80    1
    93    59    60    1
    94    92    93    1
    95    92    91    1
    96    60    61    2
    97    60    65   am
    98    69    66    1
    99    65    66    1
   100    91    88    1
   101    66    67    1
   102    82    81    2
   103    80    81    1
   104    80    79    1
   105    79    76   am
   106    67    68    2
   107    88    87    1
   108    88    89    1
   109    77    76    2
   110    78    75    1
   111    76    75    1
   112    75    74    1
   113    89    90    2
