@<TRIPOS>MOLECULE
tmp/3bptA01.pdb
 99 94 0 0 0
SMALL
GASTEIGER

@<TRIPOS>ATOM
      1  N         42.5950   -4.6610    7.6720 N.3    64  ALA64      -0.1231
      2  CA        43.2100   -4.1560    8.9140 C.3    64  ALA64       0.1694
      3  C         42.2330   -3.5080    9.8830 C.2    64  ALA64       0.2593
      4  O         42.5720   -3.2060   11.0420 O.2    64  ALA64      -0.2718
      5  CB        44.3290   -3.1620    8.5900 C.3    64  ALA64       0.0304
      6  N         41.0130   -3.2540    9.4330 N.am   65  GLY65      -0.1942
      7  CA        40.0210   -2.6380   10.2770 C.3    65  GLY65       0.2014
      8  C         38.9730   -1.8290    9.5160 C.2    65  GLY65       0.2639
      9  O         39.0170   -1.7430    8.3030 O.2    65  GLY65      -0.2714
     10  N         37.9550   -1.3210   10.2000 N.am   66  GLY66      -0.1954
     11  CA        37.1180   -0.2440    9.6270 C.3    66  GLY66       0.1869
     12  C         37.9780    0.9880    9.5080 C.2    66  GLY66       0.2309
     13  O         38.9830    1.1280   10.2190 O.2    66  GLY66      -0.2863
     14  N         38.8050    3.9740   10.5150 N.3    68  ILE68      -0.1245
     15  CA        38.5110    4.8500   11.6520 C.3    68  ILE68       0.1561
     16  C         39.1840    6.2070   11.5040 C.2    68  ILE68       0.2260
     17  O         38.7310    7.1870   12.0640 O.2    68  ILE68      -0.2867
     18  CB        38.8280    4.1950   13.0360 C.3    68  ILE68       0.0252
     19  CG1       40.3090    3.8310   13.1320 C.3    68  ILE68       0.0019
     20  CG2       37.8230    3.0410   13.3090 C.3    68  ILE68       0.0019
     21  CD1       40.7110    3.3850   14.5480 C.3    68  ILE68       0.0001
     22  N         28.1200    5.0110    9.7410 N.3    85  PHE85      -0.1227
     23  CA        29.1660    4.0070    9.5330 C.3    85  PHE85       0.1736
     24  C         29.0260    2.8360   10.5040 C.2    85  PHE85       0.2595
     25  O         28.9110    1.6920   10.0810 O.2    85  PHE85      -0.2718
     26  CB        30.5570    4.5790    9.6070 C.3    85  PHE85       0.0547
     27  CG        31.6280    3.5260    9.4470 C.ar   85  PHE85      -0.0202
     28  CD1       32.0870    3.1410    8.2070 C.ar   85  PHE85      -0.0042
     29  CD2       32.1670    2.8790   10.5780 C.ar   85  PHE85      -0.0042
     30  CE1       33.0690    2.1270    8.1080 C.ar   85  PHE85      -0.0003
     31  CE2       33.0970    1.8870   10.4540 C.ar   85  PHE85      -0.0003
     32  CZ        33.5580    1.5370    9.2210 C.ar   85  PHE85      -0.0000
     33  N         28.9990    3.1410   11.7990 N.am   86  PHE86      -0.1976
     34  CA        28.9130    2.0810   12.8010 C.3    86  PHE86       0.1639
     35  C         27.5790    1.3370   12.6710 C.2    86  PHE86       0.2290
     36  O         27.5550    0.0910   12.8200 O.2    86  PHE86      -0.2864
     37  CB        29.1820    2.6090   14.2050 C.3    86  PHE86       0.0560
     38  CG        30.5920    3.0090   14.4360 C.ar   86  PHE86      -0.0200
     39  CD1       31.5690    2.0810   14.4070 C.ar   86  PHE86      -0.0042
     40  CD2       30.9480    4.3310   14.6850 C.ar   86  PHE86      -0.0042
     41  CE1       32.9060    2.4200   14.6630 C.ar   86  PHE86      -0.0003
     42  CE2       32.2600    4.6880   14.9310 C.ar   86  PHE86      -0.0003
     43  CZ        33.2440    3.7440   14.8910 C.ar   86  PHE86      -0.0000
     44  N         27.9150   -0.7800    9.4690 N.3    89  GLU89      -0.1245
     45  CA        28.9400   -1.8010    9.6520 C.3    89  GLU89       0.1567
     46  C         28.3770   -2.9320   10.5000 C.2    89  GLU89       0.2260
     47  O         28.5480   -4.0940   10.1550 O.2    89  GLU89      -0.2867
     48  CB        30.2080   -1.2500   10.2990 C.3    89  GLU89       0.0388
     49  CG        31.2830   -2.3130   10.4230 C.3    89  GLU89       0.1160
     50  CD        32.5180   -1.7880   11.1410 C.2    89  GLU89       0.3649
     51  OE1       32.3550   -0.9900   12.1130 O.co2  89  GLU89      -0.2457
     52  OE2       33.6160   -2.1720   10.7060 O.co2  89  GLU89      -0.2457
     53  N         40.2610   -5.8970   13.9170 N.3   111  GLY111     -0.1210
     54  CA        39.1080   -5.0020   14.1440 C.3   111  GLY111      0.1956
     55  C         37.9890   -5.2900   13.1450 C.2   111  GLY111      0.2612
     56  O         37.4710   -6.4180   13.0910 O.2   111  GLY111     -0.2717
     57  N         37.5710   -4.2720   12.3840 N.am  112  GLY112     -0.1956
     58  CA        36.5240   -4.4660   11.3720 C.3   112  GLY112      0.1869
     59  C         36.7820   -5.6780   10.4530 C.2   112  GLY112      0.2309
     60  O         35.8620   -6.2910    9.9300 O.2   112  GLY112     -0.2863
     61  N         42.7350   -4.5130   18.2280 N.3   133  PRO133     -0.2102
     62  CA        43.6680   -3.5460   18.8000 C.3   133  PRO133      0.1504
     63  C         42.9920   -2.2480   19.2950 C.2   133  PRO133      0.2575
     64  O         43.6820   -1.2270   19.4590 O.2   133  PRO133     -0.2718
     65  CB        44.5340   -3.2110   17.6170 C.3   133  PRO133      0.0282
     66  CG        43.5910   -3.2240   16.4770 C.3   133  PRO133      0.0208
     67  CD        42.6420   -4.3910   16.7580 C.3   133  PRO133      0.0893
     68  N         41.6900   -2.2980   19.6310 N.am  134  GLU134     -0.1980
     69  CA        40.9350   -1.0620   19.8030 C.3   134  GLU134      0.1602
     70  C         41.2180   -0.3230   21.1220 C.2   134  GLU134      0.2287
     71  O         41.0080    0.9100   21.1790 O.2   134  GLU134     -0.2864
     72  CB        39.4510   -1.3160   19.5970 C.3   134  GLU134      0.0415
     73  CG        39.0560   -1.5540   18.1960 C.3   134  GLU134      0.1163
     74  CD        39.1620   -2.9960   17.7290 C.2   134  GLU134      0.3649
     75  OE1       39.6300   -3.8800   18.4490 O.co2 134  GLU134     -0.2457
     76  OE2       38.7130   -3.2350   16.5930 O.co2 134  GLU134     -0.2457
     77  N         38.9430    3.2030   21.4760 N.3   139  LEU139     -0.1245
     78  CA        37.6620    2.6350   21.1680 C.3   139  LEU139      0.1561
     79  C         37.4700    1.3610   22.0450 C.2   139  LEU139      0.2260
     80  O         37.7420    1.3810   23.2280 O.2   139  LEU139     -0.2867
     81  CB        37.5130    2.3770   19.6680 C.3   139  LEU139      0.0270
     82  CG        36.1050    2.2830   19.1140 C.3   139  LEU139      0.0019
     83  CD1       35.3040    3.5950   19.2670 C.3   139  LEU139      0.0001
     84  CD2       36.1100    1.8440   17.6600 C.3   139  LEU139      0.0001
     85  N         34.8210   -3.7870   18.8690 N.3   142  ASP142     -0.1225
     86  CA        33.4270   -3.7160   18.4120 C.3   142  ASP142      0.1805
     87  C         33.2110   -4.8090   17.3330 C.2   142  ASP142      0.2597
     88  O         33.8130   -5.8770   17.4020 O.2   142  ASP142     -0.2718
     89  CB        33.0690   -2.3320   17.9280 C.3   142  ASP142      0.1424
     90  CG        33.8910   -1.8830   16.7240 C.2   142  ASP142      0.3668
     91  OD1       35.0360   -2.4000   16.4950 O.co2 142  ASP142     -0.2456
     92  OD2       33.4420   -0.9730   15.9360 O.co2 142  ASP142     -0.2456
     93  N         32.3280   -4.5240   16.3650 N.am  143  VAL143     -0.1980
     94  CA        31.9960   -5.4700   15.2590 C.3   143  VAL143      0.1595
     95  C         31.6830   -6.8610   15.8160 C.2   143  VAL143      0.2287
     96  O         31.8960   -7.8820   15.1220 O.2   143  VAL143     -0.2864
     97  CB        33.0390   -5.4160   14.0870 C.3   143  VAL143      0.0276
     98  CG1       33.1240   -3.9570   13.4620 C.3   143  VAL143      0.0022
     99  CG2       34.4010   -5.8610   14.5020 C.3   143  VAL143      0.0022
@<TRIPOS>BOND
     1     1     2    1
     2    30    28   ar
     3    30    32   ar
     4    28    27   ar
     5     9     8    2
     6     5     2    1
     7     2     3    1
     8    32    31   ar
     9     6     3   am
    10     6     7    1
    11    27    26    1
    12    27    29   ar
    13    44    45    1
    14    12    11    1
    15    12    13    2
    16     8    10   am
    17     8     7    1
    18    23    26    1
    19    23    22    1
    20    23    24    1
    21    11    10    1
    22    45    48    1
    23    45    46    1
    24     3     4    2
    25    60    59    2
    26    25    24    2
    27    47    46    2
    28    48    49    1
    29    49    50    1
    30    59    58    1
    31    31    29   ar
    32    24    33   am
    33    14    15    1
    34    52    50   ar
    35    50    51   ar
    36    58    57    1
    37    16    15    1
    38    16    17    2
    39    15    18    1
    40    33    34    1
    41    57    55   am
    42    35    34    1
    43    35    36    2
    44    34    37    1
    45    18    19    1
    46    18    20    1
    47    56    55    2
    48    19    21    1
    49    55    54    1
    50    98    97    1
    51    53    54    1
    52    97    99    1
    53    97    94    1
    54    37    38    1
    55    39    38   ar
    56    39    41   ar
    57    38    40   ar
    58    41    43   ar
    59    40    42   ar
    60    43    42   ar
    61    96    95    2
    62    94    95    1
    63    94    93    1
    64    92    90   ar
    65    93    87   am
    66    66    67    1
    67    66    65    1
    68    91    90   ar
    69    76    74   ar
    70    90    89    1
    71    67    61    1
    72    87    88    2
    73    87    86    1
    74    65    62    1
    75    84    82    1
    76    74    73    1
    77    74    75   ar
    78    89    86    1
    79    73    72    1
    80    61    62    1
    81    86    85    1
    82    62    63    1
    83    82    83    1
    84    82    81    1
    85    63    64    2
    86    63    68   am
    87    72    69    1
    88    68    69    1
    89    81    78    1
    90    69    70    1
    91    70    71    2
    92    78    77    1
    93    78    79    1
    94    79    80    2
