@<TRIPOS>MOLECULE
tmp/3bpwA00.pdb
 191 177 0 0 0
SMALL
GASTEIGER

@<TRIPOS>ATOM
      1  N          8.1970  -28.9940  -32.7900 N.3    28  GLY28      -0.1225
      2  CA         9.3110  -28.8090  -31.8430 C.3    28  GLY28       0.1811
      3  C         10.3880  -29.8540  -32.0840 C.2    28  GLY28       0.2280
      4  O         10.0930  -31.0520  -32.2130 O.2    28  GLY28      -0.2866
      5  N         13.4050  -31.2160  -30.2780 N.3    30  ASP30      -0.1239
      6  CA        14.1020  -31.3010  -29.0030 C.3    30  ASP30       0.1674
      7  C         14.6890  -32.7220  -28.8590 C.2    30  ASP30       0.2266
      8  O         14.1340  -33.5430  -28.1150 O.2    30  ASP30      -0.2867
      9  CB        13.1020  -31.0840  -27.8580 C.3    30  ASP30       0.1410
     10  CG        12.5930  -29.6550  -27.7390 C.2    30  ASP30       0.3668
     11  OD1       13.0430  -28.7480  -28.4780 O.co2  30  ASP30      -0.2456
     12  OD2       11.7030  -29.4970  -26.8770 O.co2  30  ASP30      -0.2456
     13  N         10.3890  -25.0690  -33.7450 N.3   109  LYS109     -0.1245
     14  CA        10.9370  -24.5170  -32.4980 C.3   109  LYS109      0.1561
     15  C         12.0030  -25.4730  -31.9610 C.2   109  LYS109      0.2260
     16  O         11.6990  -26.6300  -31.6900 O.2   109  LYS109     -0.2867
     17  CB         9.8220  -24.4010  -31.4550 C.3   109  LYS109      0.0271
     18  CG        10.2930  -23.7890  -30.1530 C.3   109  LYS109      0.0035
     19  CD         9.1300  -23.3810  -29.2400 C.3   109  LYS109      0.0206
     20  CE         8.4400  -24.5530  -28.5350 C.3   109  LYS109      0.1093
     21  NZ         9.3670  -25.2900  -27.5860 N.3   109  LYS109     -0.1314
     22  N         14.5090  -26.2280  -28.8290 N.3   111  ASN111     -0.1240
     23  CA        14.8050  -25.7980  -27.4650 C.3   111  ASN111      0.1653
     24  C         16.2860  -25.9060  -27.1710 C.2   111  ASN111      0.2266
     25  O         16.8530  -27.0020  -27.2340 O.2   111  ASN111     -0.2867
     26  CB        13.9540  -26.5280  -26.4340 C.3   111  ASN111      0.1155
     27  CG        14.0830  -25.8630  -25.0710 C.2   111  ASN111      0.2627
     28  OD1       15.1970  -25.6290  -24.6060 O.2   111  ASN111     -0.2716
     29  ND2       12.9620  -25.5470  -24.4440 N.am  111  ASN111     -0.0877
     30  N         18.3330  -28.7420  -25.1580 N.3   114  PHE114     -0.1241
     31  CA        18.6780  -30.0580  -25.7070 C.3   114  PHE114      0.1605
     32  C         19.9950  -30.1110  -26.4740 C.2   114  PHE114      0.2264
     33  O         20.5620  -31.1940  -26.7040 O.2   114  PHE114     -0.2867
     34  CB        17.5000  -30.5670  -26.5510 C.3   114  PHE114      0.0534
     35  CG        16.2880  -30.8860  -25.7090 C.ar  114  PHE114     -0.0203
     36  CD1       16.0780  -32.1840  -25.2290 C.ar  114  PHE114     -0.0042
     37  CD2       15.4100  -29.8890  -25.3160 C.ar  114  PHE114     -0.0042
     38  CE1       14.9520  -32.4700  -24.4130 C.ar  114  PHE114     -0.0003
     39  CE2       14.2990  -30.1680  -24.5240 C.ar  114  PHE114     -0.0003
     40  CZ        14.0670  -31.4500  -24.0690 C.ar  114  PHE114     -0.0000
     41  N         13.9560  -21.5970  -28.6840 N.3   143  ASP143     -0.1239
     42  CA        13.3340  -21.6020  -27.3580 C.3   143  ASP143      0.1674
     43  C         14.4710  -21.6760  -26.3470 C.2   143  ASP143      0.2266
     44  O         15.0140  -22.7580  -26.0950 O.2   143  ASP143     -0.2867
     45  CB        12.3450  -22.7680  -27.2030 C.3   143  ASP143      0.1410
     46  CG        11.4910  -22.6490  -25.9410 C.2   143  ASP143      0.3668
     47  OD1       11.6970  -21.6650  -25.1690 O.co2 143  ASP143     -0.2456
     48  OD2       10.5950  -23.5040  -25.7410 O.co2 143  ASP143     -0.2456
     49  N         14.4150  -18.9580  -23.5890 N.3   145  LYS145     -0.1245
     50  CA        13.8720  -18.2250  -22.4390 C.3   145  LYS145      0.1561
     51  C         14.9350  -17.2940  -21.8590 C.2   145  LYS145      0.2260
     52  O         15.1490  -17.2070  -20.6470 O.2   145  LYS145     -0.2867
     53  CB        13.3080  -19.1880  -21.4000 C.3   145  LYS145      0.0271
     54  CG        12.2760  -20.1010  -22.0350 C.3   145  LYS145      0.0035
     55  CD        11.7220  -21.0390  -20.9490 C.3   145  LYS145      0.0206
     56  CE        10.5130  -21.8470  -21.4390 C.3   145  LYS145      0.1093
     57  NZ        10.7700  -22.6660  -22.6940 N.3   145  LYS145     -0.1314
     58  N         12.3240  -17.1580  -27.5440 N.3   170  THR170     -0.1218
     59  CA        11.5470  -16.9340  -26.3130 C.3   170  THR170      0.1862
     60  C         12.3940  -16.1820  -25.2900 C.2   170  THR170      0.2287
     61  O         13.6220  -16.3280  -25.2520 O.2   170  THR170     -0.2866
     62  CB        11.0860  -18.2490  -25.6540 C.3   170  THR170      0.1770
     63  OG1       12.2120  -19.1300  -25.5380 O.3   170  THR170     -0.2211
     64  CG2       10.0210  -18.9250  -26.5420 C.3   170  THR170      0.0375
     65  N          7.4160  -14.9590  -22.0560 N.3   198  LEU198     -0.1245
     66  CA         6.6450  -15.8780  -21.2420 C.3   198  LEU198      0.1561
     67  C          5.5050  -15.1300  -20.5510 C.2   198  LEU198      0.2260
     68  O          5.7230  -14.1160  -19.8580 O.2   198  LEU198     -0.2867
     69  CB         7.5030  -16.5520  -20.1770 C.3   198  LEU198      0.0270
     70  CG         8.7170  -17.2550  -20.7690 C.3   198  LEU198      0.0019
     71  CD1        9.4420  -17.9470  -19.6120 C.3   198  LEU198      0.0001
     72  CD2        8.3330  -18.2360  -21.8780 C.3   198  LEU198      0.0001
     73  N          2.0420  -17.1820  -19.6200 N.3   200  LYS200     -0.1231
     74  CA         1.4560  -18.1850  -18.7370 C.3   200  LYS200      0.1693
     75  C          1.9960  -19.5270  -19.2120 C.2   200  LYS200      0.2593
     76  O          1.8260  -19.8990  -20.3670 O.2   200  LYS200     -0.2718
     77  CB        -0.0770  -18.1730  -18.8180 C.3   200  LYS200      0.0285
     78  CG        -0.7990  -19.2940  -18.0710 C.3   200  LYS200      0.0035
     79  CD        -0.5840  -19.2240  -16.5510 C.3   200  LYS200      0.0206
     80  CE        -1.3880  -20.3610  -15.8510 C.3   200  LYS200      0.1093
     81  NZ        -1.0930  -21.7590  -16.3220 N.3   200  LYS200     -0.1314
     82  N          2.6430  -20.2390  -18.3050 N.am  201  THR201     -0.1939
     83  CA         3.3350  -21.4570  -18.6980 C.3   201  THR201      0.2028
     84  C          2.6220  -22.7390  -18.2480 C.2   201  THR201      0.2643
     85  O          1.6470  -22.7020  -17.4950 O.2   201  THR201     -0.2714
     86  CB         4.8000  -21.4030  -18.2320 C.3   201  THR201      0.1808
     87  OG1        4.8310  -21.1750  -16.8150 O.3   201  THR201     -0.2208
     88  CG2        5.4830  -20.2070  -18.9110 C.3   201  THR201      0.0379
     89  N          3.1110  -23.8730  -18.7420 N.am  202  THR202     -0.1936
     90  CA         2.4150  -25.1490  -18.5990 C.3   202  THR202      0.2028
     91  C          2.7220  -25.9400  -17.3310 C.2   202  THR202      0.2642
     92  O          1.9710  -26.8800  -16.9930 O.2   202  THR202     -0.2714
     93  CB         2.7660  -26.0990  -19.7580 C.3   202  THR202      0.1808
     94  OG1        4.1560  -26.4120  -19.7080 O.3   202  THR202     -0.2208
     95  CG2        2.4300  -25.4570  -21.1010 C.3   202  THR202      0.0379
     96  N          3.7870  -25.5620  -16.6310 N.am  203  ASN203     -0.1971
     97  CA         4.2280  -26.3260  -15.4740 C.3   203  ASN203      0.1688
     98  C          3.1580  -26.2630  -14.3930 C.2   203  ASN203      0.2292
     99  O          2.4100  -25.2820  -14.2880 O.2   203  ASN203     -0.2864
    100  CB         5.5780  -25.8260  -14.9800 C.3   203  ASN203      0.1181
    101  CG         5.6110  -24.3340  -14.8940 C.2   203  ASN203      0.2629
    102  OD1        5.6660  -23.6460  -15.9240 O.2   203  ASN203     -0.2716
    103  ND2        5.5730  -23.8160  -13.6760 N.am  203  ASN203     -0.0877
    104  N          3.9400  -16.3440  -24.9480 N.3   247  VAL247     -0.1245
    105  CA         3.8330  -17.7960  -24.7590 C.3   247  VAL247      0.1561
    106  C          2.7180  -17.9950  -23.7430 C.2   247  VAL247      0.2260
    107  O          2.8050  -17.5310  -22.5890 O.2   247  VAL247     -0.2867
    108  CB         5.1430  -18.4340  -24.2090 C.3   247  VAL247      0.0252
    109  CG1        5.0120  -19.9570  -24.1330 C.3   247  VAL247      0.0019
    110  CG2        6.3060  -18.0990  -25.1260 C.3   247  VAL247      0.0019
    111  N          0.5270  -21.3530  -22.3060 N.3   249  GLY249     -0.1225
    112  CA         0.4690  -22.8210  -22.3280 C.3   249  GLY249      0.1811
    113  C         -0.8240  -23.4060  -22.8690 C.2   249  GLY249      0.2280
    114  O         -1.9030  -22.8310  -22.7020 O.2   249  GLY249     -0.2866
    115  N          2.2190  -18.1920  -28.9390 N.3   269  LEU269     -0.1245
    116  CA         2.8790  -19.4760  -29.1280 C.3   269  LEU269      0.1561
    117  C          2.4170  -20.3640  -27.9860 C.2   269  LEU269      0.2260
    118  O          2.5610  -19.9690  -26.8170 O.2   269  LEU269     -0.2867
    119  CB         4.3930  -19.2820  -29.0060 C.3   269  LEU269      0.0270
    120  CG         5.2890  -20.5240  -28.8740 C.3   269  LEU269      0.0019
    121  CD1        5.1180  -21.4790  -30.0430 C.3   269  LEU269      0.0001
    122  CD2        6.7530  -20.1250  -28.7580 C.3   269  LEU269      0.0001
    123  N          2.8200  -24.0570  -26.2960 N.3   271  PRO271     -0.2102
    124  CA         3.3860  -25.4050  -26.1230 C.3   271  PRO271      0.1504
    125  C          2.5380  -26.2080  -25.1370 C.2   271  PRO271      0.2576
    126  O          1.7510  -25.6160  -24.4060 O.2   271  PRO271     -0.2718
    127  CB         4.7820  -25.1110  -25.5500 C.3   271  PRO271      0.0282
    128  CG         4.5870  -23.8160  -24.7870 C.3   271  PRO271      0.0208
    129  CD         3.4430  -23.0400  -25.4230 C.3   271  PRO271      0.0893
    130  N          2.6790  -27.5280  -25.1120 N.am  272  GLY272     -0.1943
    131  CA         2.0300  -28.3010  -24.0530 C.3   272  GLY272      0.2014
    132  C          0.9450  -29.2600  -24.4970 C.2   272  GLY272      0.2638
    133  O          0.2920  -29.8700  -23.6320 O.2   272  GLY272     -0.2714
    134  N          0.7450  -29.3890  -25.8080 N.am  273  ILE273     -0.1977
    135  CA        -0.0640  -30.4690  -26.3840 C.3   273  ILE273      0.1596
    136  C          0.7970  -31.6680  -26.7790 C.2   273  ILE273      0.2287
    137  O          1.8800  -31.5290  -27.3640 O.2   273  ILE273     -0.2864
    138  CB        -0.7800  -30.0470  -27.6900 C.3   273  ILE273      0.0276
    139  CG1       -1.7610  -28.8880  -27.4730 C.3   273  ILE273      0.0022
    140  CG2       -1.4610  -31.2500  -28.3590 C.3   273  ILE273      0.0022
    141  CD1       -3.0460  -29.2320  -26.8160 C.3   273  ILE273      0.0001
    142  N          2.6820  -34.7250  -25.8260 N.3   275  ALA275     -0.1231
    143  CA         3.3920  -35.3710  -24.7260 C.3   275  ALA275      0.1694
    144  C          2.9760  -34.8150  -23.3550 C.2   275  ALA275      0.2591
    145  O          3.2290  -35.4420  -22.3200 O.2   275  ALA275     -0.2718
    146  CB         4.9000  -35.2440  -24.9330 C.3   275  ALA275      0.0304
    147  N          2.3440  -33.6420  -23.3440 N.am  276  GLN276     -0.1979
    148  CA         1.8770  -33.0260  -22.0970 C.3   276  GLN276      0.1601
    149  C          0.3460  -32.9330  -22.0050 C.2   276  GLN276      0.2287
    150  O         -0.1980  -32.4060  -21.0310 O.2   276  GLN276     -0.2864
    151  CB         2.5440  -31.6600  -21.8750 C.3   276  GLN276      0.0394
    152  CG         4.0500  -31.7150  -21.5940 C.3   276  GLN276      0.0908
    153  CD         4.6590  -30.3400  -21.3320 C.2   276  GLN276      0.2608
    154  OE1        4.3800  -29.7060  -20.3050 O.2   276  GLN276     -0.2717
    155  NE2        5.4930  -29.8700  -22.2660 N.am  276  GLN276     -0.0878
    156  N          2.5430  -25.7850  -30.6280 N.3   298  ASN298     -0.1225
    157  CA         3.7750  -26.5370  -30.6880 C.3   298  ASN298      0.1785
    158  C          3.5290  -28.0010  -30.3470 C.2   298  ASN298      0.2597
    159  O          2.9300  -28.3140  -29.3140 O.2   298  ASN298     -0.2718
    160  CB         4.8340  -25.9800  -29.7130 C.3   298  ASN298      0.1169
    161  CG         6.1100  -26.7910  -29.7510 C.2   298  ASN298      0.2627
    162  OD1        6.8910  -26.6630  -30.6980 O.2   298  ASN298     -0.2716
    163  ND2        6.3290  -27.6290  -28.7400 N.am  298  ASN298     -0.0877
    164  N          4.0440  -28.8850  -31.1990 N.am  299  ILE299     -0.1966
    165  CA         4.0360  -30.3210  -30.9440 C.3   299  ILE299      0.1727
    166  C          5.4570  -30.8600  -31.1350 C.2   299  ILE299      0.2617
    167  O          6.0250  -30.7590  -32.2160 O.2   299  ILE299     -0.2715
    168  CB         3.0330  -31.0780  -31.8500 C.3   299  ILE299      0.0290
    169  CG1        1.6210  -30.5050  -31.6760 C.3   299  ILE299      0.0022
    170  CG2        3.1210  -32.6040  -31.6120 C.3   299  ILE299      0.0023
    171  CD1        0.5830  -31.1340  -32.5170 C.3   299  ILE299      0.0001
    172  N          6.0430  -31.4240  -30.0850 N.am  300  GLY300     -0.1940
    173  CA         7.4310  -31.8880  -30.1610 C.3   300  GLY300      0.2014
    174  C          7.5330  -33.4100  -30.1190 C.2   300  GLY300      0.2639
    175  O          7.5210  -34.0730  -31.1450 O.2   300  GLY300     -0.2714
    176  N          7.6860  -33.9490  -28.9160 N.am  301  ARG301     -0.1963
    177  CA         7.8340  -35.4010  -28.7140 C.3   301  ARG301      0.1729
    178  C          6.7870  -36.3000  -29.3740 C.2   301  ARG301      0.2616
    179  O          7.1430  -37.3970  -29.8350 O.2   301  ARG301     -0.2715
    180  CB         7.9790  -35.6850  -27.2120 C.3   301  ARG301      0.0348
    181  CG         9.3570  -35.3180  -26.7020 C.3   301  ARG301      0.0492
    182  CD         9.3640  -35.3430  -25.1710 C.3   301  ARG301      0.2205
    183  NE         8.4490  -34.3560  -24.5800 N.pl3 301  ARG301     -0.0865
    184  CZ         8.1610  -34.2700  -23.2840 C.cat 301  ARG301      0.5346
    185  NH1        8.6720  -35.1490  -22.4230 N.pl3 301  ARG301      0.1354
    186  NH2        7.3410  -33.3140  -22.8520 N.pl3 301  ARG301      0.1354
    187  N          5.5370  -35.8320  -29.4930 N.am  302  ALA302     -0.1977
    188  CA         4.4880  -36.6560  -30.1240 C.3   302  ALA302      0.1597
    189  C          4.8210  -36.9170  -31.6040 C.2   302  ALA302      0.2287
    190  O          4.3430  -37.8870  -32.1970 O.2   302  ALA302     -0.2864
    191  CB         3.1170  -36.0060  -29.9460 C.3   302  ALA302      0.0319
@<TRIPOS>BOND
     1    13    14    1
     2     1     2    1
     3   171   169    1
     4    14    15    1
     5    14    17    1
     6   167   166    2
     7     4     3    2
     8   190   189    2
     9     3     2    1
    10    15    16    2
    11   168   169    1
    12   168   170    1
    13   168   165    1
    14   189   188    1
    15    17    18    1
    16   164   165    1
    17   164   158   am
    18   175   174    2
    19   166   165    1
    20   166   172   am
    21   162   161    2
    22   157   156    1
    23   157   158    1
    24   157   160    1
    25   158   159    2
    26     5     6    1
    27   173   174    1
    28   173   172    1
    29    18    19    1
    30   188   191    1
    31   188   187    1
    32   174   176   am
    33   121   120    1
    34   179   178    2
    35   161   160    1
    36   161   163   am
    37   187   178   am
    38   178   177    1
    39    19    20    1
    40   116   119    1
    41   116   115    1
    42   116   117    1
    43   119   120    1
    44     6     7    1
    45     6     9    1
    46   176   177    1
    47   120   122    1
    48     7     8    2
    49    22    23    1
    50   177   180    1
    51    41    42    1
    52    20    21    1
    53    11    10   ar
    54   140   138    1
    55   117   118    2
    56     9    10    1
    57    10    12   ar
    58   138   139    1
    59   138   135    1
    60    58    59    1
    61   139   141    1
    62    23    24    1
    63    23    26    1
    64   137   136    2
    65    42    45    1
    66    42    43    1
    67    25    24    2
    68   180   181    1
    69    45    46    1
    70   136   135    1
    71    33    32    2
    72   181   182    1
    73    34    35    1
    74    34    31    1
    75    64    62    1
    76    32    31    1
    77    26    27    1
    78   135   134    1
    79    43    44    2
    80    59    62    1
    81    59    60    1
    82   123   124    1
    83   123   129    1
    84   124   127    1
    85   124   125    1
    86    46    48   ar
    87    46    47   ar
    88   142   143    1
    89   134   132   am
    90    35    37   ar
    91    35    36   ar
    92    31    30    1
    93    62    63    1
    94   127   128    1
    95   129   128    1
    96    37    39   ar
    97    60    61    2
    98    36    38   ar
    99   182   183    1
   100   125   130   am
   101   125   126    2
   102   110   108    1
   103   130   131    1
   104    27    28    2
   105    27    29   am
   106   104   105    1
   107   146   143    1
   108   105   108    1
   109   105   106    1
   110   143   144    1
   111   183   184    2
   112    39    40   ar
   113   132   131    1
   114   132   133    2
   115    38    40   ar
   116   108   109    1
   117   106   107    2
   118    49    50    1
   119   144   147   am
   120   144   145    2
   121   147   148    1
   122   184   186    1
   123   184   185    1
   124   113   114    2
   125   113   112    1
   126    57    56    1
   127    50    51    1
   128    50    53    1
   129   112   111    1
   130   155   153   am
   131   148   149    1
   132   148   151    1
   133    65    66    1
   134    54    53    1
   135    54    55    1
   136   149   150    2
   137    72    70    1
   138   151   152    1
   139    51    52    2
   140   152   153    1
   141    56    55    1
   142   153   154    2
   143    66    67    1
   144    66    69    1
   145    95    93    1
   146    70    69    1
   147    70    71    1
   148    67    68    2
   149    76    75    2
   150    93    94    1
   151    93    90    1
   152    73    74    1
   153    75    74    1
   154    75    82   am
   155    88    86    1
   156    77    74    1
   157    77    78    1
   158    89    90    1
   159    89    84   am
   160    83    82    1
   161    83    84    1
   162    83    86    1
   163    90    91    1
   164    84    85    2
   165    86    87    1
   166    78    79    1
   167    91    92    2
   168    91    96   am
   169    96    97    1
   170    79    80    1
   171    81    80    1
   172   102   101    2
   173    97   100    1
   174    97    98    1
   175   100   101    1
   176   101   103   am
   177    98    99    2
