@<TRIPOS>MOLECULE
tmp/3bq1C00.pdb
 172 168 0 0 0
SMALL
GASTEIGER

@<TRIPOS>ATOM
      1  N         38.4790   22.4810  -11.4660 N.3     7  ASP7       -0.1225
      2  CA        37.5810   21.9650  -12.4700 C.3     7  ASP7        0.1805
      3  C         37.2910   23.0760  -13.4620 C.2     7  ASP7        0.2598
      4  O         36.8620   24.1730  -13.0700 O.2     7  ASP7       -0.2718
      5  CB        36.2980   21.4630  -11.8140 C.3     7  ASP7        0.1424
      6  CG        35.3020   20.9210  -12.8230 C.2     7  ASP7        0.3668
      7  OD1       34.6840   19.8610  -12.5510 O.co2   7  ASP7       -0.2456
      8  OD2       35.1380   21.5580  -13.8960 O.co2   7  ASP7       -0.2456
      9  N         37.5300   22.8090  -14.7430 N.am    8  PHE8       -0.1962
     10  CA        37.4140   23.8630  -15.7620 C.3     8  PHE8        0.1771
     11  C         35.9430   24.0880  -16.0840 C.2     8  PHE8        0.2620
     12  O         35.1980   23.1160  -16.2960 O.2     8  PHE8       -0.2715
     13  CB        38.2000   23.5360  -17.0470 C.3     8  PHE8        0.0574
     14  CG        39.6240   23.0740  -16.8210 C.ar    8  PHE8       -0.0200
     15  CD1       40.2630   22.2940  -17.7830 C.ar    8  PHE8       -0.0042
     16  CD2       40.3280   23.4080  -15.6630 C.ar    8  PHE8       -0.0042
     17  CE1       41.5790   21.8420  -17.5990 C.ar    8  PHE8       -0.0003
     18  CE2       41.6370   22.9640  -15.4610 C.ar    8  PHE8       -0.0003
     19  CZ        42.2660   22.1810  -16.4310 C.ar    8  PHE8       -0.0000
     20  N         35.5390   25.3630  -16.0950 N.am    9  ASP9       -0.1957
     21  CA        34.1370   25.7680  -16.2920 C.3     9  ASP9        0.1840
     22  C         33.6730   25.5090  -17.7180 C.2     9  ASP9        0.2622
     23  O         34.3120   25.9740  -18.6670 O.2     9  ASP9       -0.2715
     24  CB        33.9550   27.2600  -15.9770 C.3     9  ASP9        0.1450
     25  CG        34.1280   27.5800  -14.4960 C.2     9  ASP9        0.3671
     26  OD1       34.6190   28.6930  -14.1750 O.co2   9  ASP9       -0.2456
     27  OD2       33.7760   26.7220  -13.6520 O.co2   9  ASP9       -0.2456
     28  N         32.5640   24.7860  -17.8690 N.am   10  TYR10      -0.1960
     29  CA        32.0240   24.4350  -19.1930 C.3    10  TYR10       0.1771
     30  C         33.1290   24.3340  -20.2920 C.2    10  TYR10       0.2620
     31  O         33.1240   25.0440  -21.3110 O.2    10  TYR10      -0.2715
     32  CB        30.8530   25.3600  -19.5710 C.3    10  TYR10       0.0574
     33  CG        31.2320   26.8080  -19.7630 C.ar   10  TYR10      -0.0198
     34  CD1       31.4600   27.3190  -21.0450 C.ar   10  TYR10      -0.0009
     35  CD2       31.3580   27.6720  -18.6710 C.ar   10  TYR10      -0.0009
     36  CE1       31.8180   28.6480  -21.2400 C.ar   10  TYR10       0.0417
     37  CE2       31.7180   29.0040  -18.8480 C.ar   10  TYR10       0.0417
     38  CZ        31.9520   29.4830  -20.1410 C.ar   10  TYR10       0.1957
     39  OH        32.2990   30.7990  -20.3460 O.3    10  TYR10      -0.2866
     40  N         34.0680   23.4230  -20.0630 N.am   11  PHE11      -0.1960
     41  CA        35.3550   23.4620  -20.7500 C.3    11  PHE11       0.1771
     42  C         35.2870   23.5760  -22.2810 C.2    11  PHE11       0.2619
     43  O         35.8160   24.5430  -22.8450 O.2    11  PHE11      -0.2715
     44  CB        36.2310   22.2850  -20.3120 C.3    11  PHE11       0.0574
     45  CG        37.6410   22.3600  -20.8040 C.ar   11  PHE11      -0.0200
     46  CD1       38.3700   23.5420  -20.6900 C.ar   11  PHE11      -0.0042
     47  CD2       38.2460   21.2390  -21.3570 C.ar   11  PHE11      -0.0042
     48  CE1       39.6790   23.6060  -21.1410 C.ar   11  PHE11      -0.0003
     49  CE2       39.5440   21.2880  -21.8170 C.ar   11  PHE11      -0.0003
     50  CZ        40.2680   22.4760  -21.7170 C.ar   11  PHE11      -0.0000
     51  N         34.6350   22.6180  -22.9480 N.am   12  PHE12      -0.1974
     52  CA        34.6530   22.5830  -24.4130 C.3    12  PHE12       0.1639
     53  C         34.0670   23.8640  -24.9970 C.2    12  PHE12       0.2290
     54  O         34.6710   24.4980  -25.8790 O.2    12  PHE12      -0.2864
     55  CB        33.9210   21.3610  -24.9760 C.3    12  PHE12       0.0560
     56  CG        34.5140   20.0320  -24.5710 C.ar   12  PHE12      -0.0200
     57  CD1       35.7570   19.9460  -23.9520 C.ar   12  PHE12      -0.0042
     58  CD2       33.8250   18.8550  -24.8340 C.ar   12  PHE12      -0.0042
     59  CE1       36.2930   18.6990  -23.5840 C.ar   12  PHE12      -0.0003
     60  CE2       34.3550   17.6060  -24.4740 C.ar   12  PHE12      -0.0003
     61  CZ        35.5850   17.5270  -23.8540 C.ar   12  PHE12      -0.0000
     62  N         28.3150   16.4760  -30.1400 N.3    32  VAL32      -0.1245
     63  CA        29.0220   15.2270  -30.3770 C.3    32  VAL32       0.1561
     64  C         28.1120   14.3350  -31.1910 C.2    32  VAL32       0.2260
     65  O         26.9330   14.1850  -30.8600 O.2    32  VAL32      -0.2867
     66  CB        29.4650   14.5350  -29.0390 C.3    32  VAL32       0.0252
     67  CG1       28.3370   14.5180  -27.9970 C.3    32  VAL32       0.0019
     68  CG2       29.9880   13.1290  -29.2970 C.3    32  VAL32       0.0019
     69  N         24.1630   14.8350  -30.2050 N.3    42  ALA42      -0.1231
     70  CA        23.7440   15.2170  -28.8570 C.3    42  ALA42       0.1694
     71  C         24.6250   16.3270  -28.3140 C.2    42  ALA42       0.2592
     72  O         25.6760   16.6320  -28.8900 O.2    42  ALA42      -0.2718
     73  CB        23.7920   14.0270  -27.9330 C.3    42  ALA42       0.0304
     74  N         24.1980   16.9250  -27.2020 N.am   43  VAL43      -0.1966
     75  CA        24.9330   18.0290  -26.5900 C.3    43  VAL43       0.1727
     76  C         26.1160   17.5040  -25.7780 C.2    43  VAL43       0.2616
     77  O         25.9500   16.6920  -24.8520 O.2    43  VAL43      -0.2715
     78  CB        24.0210   18.8840  -25.6840 C.3    43  VAL43       0.0290
     79  CG1       24.8350   19.9180  -24.9080 C.3    43  VAL43       0.0023
     80  CG2       22.9740   19.5690  -26.5040 C.3    43  VAL43       0.0023
     81  N         27.3120   17.9640  -26.1320 N.am   44  ALA44      -0.1963
     82  CA        28.5010   17.6510  -25.3460 C.3    44  ALA44       0.1728
     83  C         28.7040   18.7040  -24.2550 C.2    44  ALA44       0.2616
     84  O         28.8270   18.3680  -23.0810 O.2    44  ALA44      -0.2715
     85  CB        29.7130   17.5390  -26.2320 C.3    44  ALA44       0.0334
     86  N         28.7010   19.9760  -24.6400 N.am   45  THR45      -0.1951
     87  CA        28.8200   21.0760  -23.6910 C.3    45  THR45       0.1897
     88  C         28.0430   22.2990  -24.1640 C.2    45  THR45       0.2313
     89  O         28.1050   22.6650  -25.3410 O.2    45  THR45      -0.2863
     90  CB        30.2810   21.4850  -23.5200 C.3    45  THR45       0.1794
     91  OG1       31.0560   20.3270  -23.1880 O.3    45  THR45      -0.2208
     92  CG2       30.4340   22.5630  -22.4250 C.3    45  THR45       0.0378
     93  N         27.0190   29.0240  -20.5740 N.3    48  TYR48      -0.1241
     94  CA        26.0100   29.3360  -19.5770 C.3    48  TYR48       0.1605
     95  C         24.7770   30.0510  -20.1070 C.2    48  TYR48       0.2264
     96  O         23.7050   29.9480  -19.5230 O.2    48  TYR48      -0.2867
     97  CB        26.6060   30.0180  -18.3470 C.3    48  TYR48       0.0534
     98  CG        27.0540   29.0020  -17.3080 C.ar   48  TYR48      -0.0201
     99  CD1       26.2650   28.7240  -16.1680 C.ar   48  TYR48      -0.0009
    100  CD2       28.2540   28.2900  -17.4760 C.ar   48  TYR48      -0.0009
    101  CE1       26.6720   27.7740  -15.2120 C.ar   48  TYR48       0.0417
    102  CE2       28.6710   27.3380  -16.5330 C.ar   48  TYR48       0.0417
    103  CZ        27.8790   27.0870  -15.4060 C.ar   48  TYR48       0.1957
    104  OH        28.3260   26.1510  -14.4920 O.3    48  TYR48      -0.2866
    105  N         22.9130   27.0330  -21.1350 N.3    51  ARG51      -0.1245
    106  CA        22.4470   26.3210  -19.9380 C.3    51  ARG51       0.1563
    107  C         21.2750   27.0400  -19.2770 C.2    51  ARG51       0.2260
    108  O         20.4360   26.4120  -18.6390 O.2    51  ARG51      -0.2867
    109  CB        23.5760   26.1330  -18.9290 C.3    51  ARG51       0.0307
    110  CG        24.6290   25.1790  -19.3920 C.3    51  ARG51       0.0489
    111  CD        25.7540   25.0200  -18.3910 C.3    51  ARG51       0.2205
    112  NE        26.7860   24.1570  -18.9710 N.pl3  51  ARG51      -0.0865
    113  CZ        27.7180   23.4990  -18.2880 C.cat  51  ARG51       0.5346
    114  NH1       27.7840   23.5850  -16.9650 N.pl3  51  ARG51       0.1354
    115  NH2       28.5940   22.7550  -18.9490 N.pl3  51  ARG51       0.1354
    116  N         23.9220   18.8390  -21.0530 N.3    57  ALA57      -0.1231
    117  CA        24.7380   17.8310  -21.7270 C.3    57  ALA57       0.1694
    118  C         23.9520   16.5350  -21.8880 C.2    57  ALA57       0.2592
    119  O         23.1480   16.1930  -21.0320 O.2    57  ALA57      -0.2718
    120  CB        26.0170   17.5890  -20.9660 C.3    57  ALA57       0.0304
    121  N         24.1770   15.8400  -23.0010 N.am   58  GLY58      -0.1957
    122  CA        23.5310   14.5630  -23.2790 C.3    58  GLY58       0.1869
    123  C         22.1670   14.7160  -23.9240 C.2    58  GLY58       0.2309
    124  O         21.6010   13.7500  -24.4660 O.2    58  GLY58      -0.2863
    125  N         32.3430   19.1840  -32.1490 N.3    76  MET76      -0.1245
    126  CA        33.3720   19.0230  -31.1330 C.3    76  MET76       0.1570
    127  C         34.7590   18.8430  -31.7500 C.2    76  MET76       0.2261
    128  O         34.9230   18.1120  -32.7200 O.2    76  MET76      -0.2867
    129  CB        33.0350   17.8210  -30.2770 C.3    76  MET76       0.0387
    130  CG        33.7280   17.8180  -28.9590 C.3    76  MET76       0.0595
    131  SD        33.1850   16.4270  -27.9740 S.3    76  MET76      -0.1393
    132  CE        33.4910   15.0250  -29.0920 C.3    76  MET76       0.0692
    133  N         40.4860   13.9330  -15.0600 N.3   103  SER103     -0.1202
    134  CA        39.9620   13.9490  -16.4110 C.3   103  SER103      0.2020
    135  C         40.5320   15.1500  -17.1600 C.2   103  SER103      0.2619
    136  O         41.3260   15.9190  -16.6200 O.2   103  SER103     -0.2717
    137  CB        38.4250   13.9780  -16.4000 C.3   103  SER103      0.2103
    138  OG        37.9220   15.1450  -15.7640 O.3   103  SER103     -0.2182
    139  N         40.1240   15.3000  -18.4110 N.am  104  ILE104     -0.1965
    140  CA        40.5540   16.4040  -19.2580 C.3   104  ILE104      0.1727
    141  C         40.3750   17.7850  -18.5890 C.2   104  ILE104      0.2616
    142  O         41.1000   18.7260  -18.9070 O.2   104  ILE104     -0.2715
    143  CB        39.8260   16.3230  -20.6450 C.3   104  ILE104      0.0290
    144  CG1       40.4700   17.2470  -21.6740 C.3   104  ILE104      0.0022
    145  CG2       38.3150   16.5920  -20.5040 C.3   104  ILE104      0.0023
    146  CD1       40.0780   16.9310  -23.1040 C.3   104  ILE104      0.0001
    147  N         39.4270   17.9070  -17.6590 N.am  105  ASP105     -0.1957
    148  CA        39.1600   19.2030  -17.0470 C.3   105  ASP105      0.1840
    149  C         39.1850   19.2280  -15.5150 C.2   105  ASP105      0.2621
    150  O         38.8430   20.2390  -14.9010 O.2   105  ASP105     -0.2715
    151  CB        37.8600   19.7970  -17.5900 C.3   105  ASP105      0.1450
    152  CG        36.6130   19.1330  -17.0180 C.2   105  ASP105      0.3671
    153  OD1       36.5960   17.8910  -16.8380 O.co2 105  ASP105     -0.2456
    154  OD2       35.6340   19.8650  -16.7630 O.co2 105  ASP105     -0.2456
    155  N         39.6150   18.1270  -14.9040 N.am  106  GLU106     -0.1977
    156  CA        39.6210   18.0020  -13.4470 C.3   106  GLU106      0.1602
    157  C         40.9660   17.5200  -12.9320 C.2   106  GLU106      0.2287
    158  O         41.4870   16.5050  -13.4100 O.2   106  GLU106     -0.2864
    159  CB        38.5190   17.0360  -12.9810 C.3   106  GLU106      0.0415
    160  CG        37.0980   17.4480  -13.4150 C.3   106  GLU106      0.1163
    161  CD        36.0080   16.5210  -12.8940 C.2   106  GLU106      0.3649
    162  OE1       36.3340   15.3880  -12.4660 O.co2 106  GLU106     -0.2457
    163  OE2       34.8190   16.9280  -12.9180 O.co2 106  GLU106     -0.2457
    164  N         30.2840   26.3130   -8.6300 N.3   160  LYS160     -0.1245
    165  CA        30.3870   26.5910  -10.0650 C.3   160  LYS160      0.1561
    166  C         29.3790   27.6530  -10.5340 C.2   160  LYS160      0.2260
    167  O         28.2870   27.7440   -9.9810 O.2   160  LYS160     -0.2867
    168  CB        30.1740   25.3080  -10.8650 C.3   160  LYS160      0.0271
    169  CG        31.3420   24.3660  -10.9150 C.3   160  LYS160      0.0035
    170  CD        30.9310   23.1250  -11.6570 C.3   160  LYS160      0.0206
    171  CE        32.0420   22.1060  -11.6510 C.3   160  LYS160      0.1093
    172  NZ        31.7310   20.9440  -12.5210 N.3   160  LYS160     -0.1314
@<TRIPOS>BOND
     1   128   127    2
     2   125   126    1
     3   127   126    1
     4    64    65    2
     5    64    63    1
     6   126   129    1
     7    63    62    1
     8    63    66    1
     9   129   130    1
    10    69    70    1
    11    68    66    1
    12   132   131    1
    13    66    67    1
    14   130   131    1
    15    72    71    2
    16    70    71    1
    17    70    73    1
    18    71    74   am
    19    74    75    1
    20    75    76    1
    21    75    78    1
    22    80    78    1
    23    85    82    1
    24    81    76   am
    25    81    82    1
    26    54    53    2
    27    76    77    2
    28    78    79    1
    29    82    83    1
    30    89    88    2
    31    53    52    1
    32    55    56    1
    33    55    52    1
    34    58    56   ar
    35    58    60   ar
    36    86    83   am
    37    86    87    1
    38    56    57   ar
    39    60    61   ar
    40   124   123    2
    41    52    51    1
    42    83    84    2
    43    88    87    1
    44    57    59   ar
    45   123   122    1
    46    61    59   ar
    47    87    90    1
    48    90    91    1
    49    90    92    1
    50   122   121    1
    51   146   144    1
    52   121   118   am
    53    51    42   am
    54    43    42    2
    55    42    41    1
    56   118   117    1
    57   118   119    2
    58    49    50   ar
    59    49    47   ar
    60   117   116    1
    61   117   120    1
    62    50    48   ar
    63   144   143    1
    64    47    45   ar
    65    31    30    2
    66    36    34   ar
    67    36    38   ar
    68    48    46   ar
    69   105   106    1
    70    34    33   ar
    71    45    46   ar
    72    45    44    1
    73    41    44    1
    74    41    40    1
    75   143   145    1
    76   143   140    1
    77    93    94    1
    78    39    38    1
    79    30    40   am
    80    30    29    1
    81    38    37   ar
    82    95    94    1
    83    95    96    2
    84   106   107    1
    85   106   109    1
    86    33    32    1
    87    33    35   ar
    88    94    97    1
    89    32    29    1
    90   110   109    1
    91   110   111    1
    92   107   108    2
    93   140   141    1
    94   140   139    1
    95    29    28    1
    96   112   111    1
    97   112   113    2
    98   115   113    1
    99   142   141    2
   100    37    35   ar
   101    23    22    2
   102   141   147   am
   103   139   135   am
   104    97    98    1
   105   113   114    1
   106    28    22   am
   107    15    17   ar
   108    15    14   ar
   109    22    21    1
   110   147   148    1
   111    17    19   ar
   112   151   148    1
   113   151   152    1
   114   100    98   ar
   115   100   102   ar
   116    98    99   ar
   117   135   136    2
   118   135   134    1
   119   148   149    1
   120    13    14    1
   121    13    10    1
   122   152   153   ar
   123   152   154   ar
   124    14    16   ar
   125   102   103   ar
   126    19    18   ar
   127   134   137    1
   128   134   133    1
   129   137   138    1
   130    12    11    2
   131    21    20    1
   132    21    24    1
   133    99   101   ar
   134    20    11   am
   135    11    10    1
   136    24    25    1
   137    10     9    1
   138    16    18   ar
   139   149   155   am
   140   149   150    2
   141   103   101   ar
   142   103   104    1
   143   155   156    1
   144     9     3   am
   145    25    26   ar
   146    25    27   ar
   147     8     6   ar
   148     3     4    2
   149     3     2    1
   150   156   159    1
   151   156   157    1
   152   160   159    1
   153   160   161    1
   154   158   157    2
   155   163   161   ar
   156   161   162   ar
   157     6     7   ar
   158     6     5    1
   159   172   171    1
   160     2     5    1
   161     2     1    1
   162   170   171    1
   163   170   169    1
   164   169   168    1
   165   168   165    1
   166   166   165    1
   167   166   167    2
   168   165   164    1
