@<TRIPOS>MOLECULE
tmp/3bq5A00.pdb
 93 85 0 0 0
SMALL
GASTEIGER

@<TRIPOS>ATOM
      1  N         60.3390   82.6780  -10.8320 N.3   402  ILE402     -0.1231
      2  CA        60.5840   81.3240  -10.3510 C.3   402  ILE402      0.1692
      3  C         60.4490   80.2350  -11.4190 C.2   402  ILE402      0.2593
      4  O         60.9610   79.1320  -11.2440 O.2   402  ILE402     -0.2718
      5  CB        59.6920   81.0020   -9.1340 C.3   402  ILE402      0.0266
      6  CG1       59.9500   82.0270   -8.0170 C.3   402  ILE402      0.0019
      7  CG2       59.9470   79.5890   -8.6340 C.3   402  ILE402      0.0020
      8  CD1       61.4260   82.1960   -7.6540 C.3   402  ILE402      0.0001
      9  N         59.7700   80.5380  -12.5200 N.am  403  GLY403     -0.1942
     10  CA        59.7020   79.5870  -13.6200 C.3   403  GLY403      0.2014
     11  C         58.4310   79.6260  -14.4450 C.2   403  GLY403      0.2639
     12  O         58.4630   79.9450  -15.6310 O.2   403  GLY403     -0.2714
     13  N         57.3060   79.2900  -13.8240 N.am  404  SER404     -0.1949
     14  CA        56.0410   79.2000  -14.5470 C.3   404  SER404      0.1924
     15  C         55.3550   80.5600  -14.7210 C.2   404  SER404      0.2314
     16  O         55.4480   81.4320  -13.8560 O.2   404  SER404     -0.2863
     17  CB        55.0950   78.2150  -13.8540 C.3   404  SER404      0.2116
     18  OG        54.6960   78.6900  -12.5800 O.3   404  SER404     -0.2180
     19  N         57.3780   77.4920  -18.6820 N.3   442  GLU442     -0.1245
     20  CA        56.8550   76.1500  -18.4120 C.3   442  GLU442      0.1567
     21  C         55.4570   75.9120  -18.9810 C.2   442  GLU442      0.2260
     22  O         54.6750   75.1400  -18.4220 O.2   442  GLU442     -0.2867
     23  CB        56.8510   75.8670  -16.9030 C.3   442  GLU442      0.0388
     24  CG        58.2140   76.0130  -16.2420 C.3   442  GLU442      0.1160
     25  CD        58.1850   75.6520  -14.7680 C.2   442  GLU442      0.3649
     26  OE1       57.3300   74.8330  -14.3680 O.co2 442  GLU442     -0.2457
     27  OE2       59.0180   76.1830  -14.0060 O.co2 442  GLU442     -0.2457
     28  N         55.1670   70.0750  -12.0840 N.3   448  MET448     -0.1245
     29  CA        56.6160   69.9490  -11.9340 C.3   448  MET448      0.1570
     30  C         57.1090   68.5180  -11.7320 C.2   448  MET448      0.2261
     31  O         58.2920   68.2270  -11.9340 O.2   448  MET448     -0.2867
     32  CB        57.1100   70.8400  -10.7920 C.3   448  MET448      0.0387
     33  CG        56.5270   70.4750   -9.4400 C.3   448  MET448      0.0595
     34  SD        56.7230   71.8070   -8.2490 S.3   448  MET448     -0.1393
     35  CE        58.5080   72.0410   -8.3450 C.3   448  MET448      0.0692
     36  N         65.4300   74.8280  -15.8270 N.3   509  MET509     -0.1245
     37  CA        64.3630   74.6530  -14.8460 C.3   509  MET509      0.1570
     38  C         64.0610   73.1810  -14.5730 C.2   509  MET509      0.2261
     39  O         63.4200   72.5100  -15.3830 O.2   509  MET509     -0.2867
     40  CB        63.0970   75.3680  -15.3270 C.3   509  MET509      0.0387
     41  CG        61.9850   75.4140  -14.2980 C.3   509  MET509      0.0595
     42  SD        62.4370   76.4070  -12.8640 S.3   509  MET509     -0.1393
     43  CE        62.9810   77.9070  -13.6900 C.3   509  MET509      0.0692
     44  N         64.1070   72.8430   -8.3430 N.3   557  ASP557     -0.1239
     45  CA        62.9690   73.0870   -7.4530 C.3   557  ASP557      0.1674
     46  C         62.8210   71.9740   -6.4290 C.2   557  ASP557      0.2266
     47  O         62.5590   70.8330   -6.7920 O.2   557  ASP557     -0.2867
     48  CB        61.6720   73.1760   -8.2590 C.3   557  ASP557      0.1410
     49  CG        61.6620   74.3390   -9.2250 C.2   557  ASP557      0.3668
     50  OD1       62.2170   75.4020   -8.8810 O.co2 557  ASP557     -0.2456
     51  OD2       61.0810   74.1940  -10.3220 O.co2 557  ASP557     -0.2456
     52  N         60.5780   71.9220   -3.4160 N.3   559  PRO559     -0.2116
     53  CA        59.5490   72.3610   -2.4680 C.3   559  PRO559      0.1372
     54  C         59.2640   71.3450   -1.3650 C.2   559  PRO559      0.2244
     55  O         58.7440   71.7310   -0.3260 O.2   559  PRO559     -0.2868
     56  CB        58.3090   72.5250   -3.3570 C.3   559  PRO559      0.0268
     57  CG        58.6120   71.6940   -4.5810 C.3   559  PRO559      0.0207
     58  CD        60.0640   71.9440   -4.7940 C.3   559  PRO559      0.0892
     59  N         65.2080   76.3600   -5.4380 N.3   598  HIS598     -0.1241
     60  CA        63.9500   77.0160   -5.0890 C.3   598  HIS598      0.1621
     61  C         63.2300   76.2250   -4.0190 C.2   598  HIS598      0.2264
     62  O         62.8650   75.0630   -4.2150 O.2   598  HIS598     -0.2867
     63  CB        63.0530   77.2150   -6.3100 C.3   598  HIS598      0.0745
     64  CG        61.6650   77.6690   -5.9660 C.ar  598  HIS598      0.0817
     65  ND1       61.3990   78.9050   -5.4170 N.ar  598  HIS598     -0.2268
     66  CD2       60.4680   77.0440   -6.0800 C.ar  598  HIS598      0.1154
     67  CE1       60.0990   79.0270   -5.2190 C.ar  598  HIS598      0.1986
     68  NE2       59.5090   77.9120   -5.6130 N.ar  598  HIS598     -0.2212
     69  N         60.1800   76.9390   -1.4590 N.3   600  CYS600     -0.1235
     70  CA        59.1190   77.8700   -1.0780 C.3   600  CYS600      0.1677
     71  C         58.3100   77.4150    0.1280 C.2   600  CYS600      0.2270
     72  O         57.1420   77.7400    0.2370 O.2   600  CYS600     -0.2867
     73  CB        58.1680   78.1090   -2.2620 C.3   600  CYS600      0.0956
     74  SG        57.4620   76.5830   -2.9960 S.3   600  CYS600     -0.0801
     75  N         56.8790   82.3980   -5.5930 N.3   684  CYS684     -0.1221
     76  CA        56.8450   81.1080   -6.2750 C.3   684  CYS684      0.1808
     77  C         56.4300   81.3180   -7.7220 C.2   684  CYS684      0.2601
     78  O         56.3630   82.4500   -8.1880 O.2   684  CYS684     -0.2717
     79  CB        55.8700   80.1650   -5.5550 C.3   684  CYS684      0.0970
     80  SG        55.8260   78.4110   -6.1070 S.3   684  CYS684     -0.0800
     81  N         56.1460   80.2280   -8.4280 N.am  685  GLY685     -0.1957
     82  CA        55.7090   80.3070   -9.8130 C.3   685  GLY685      0.1869
     83  C         54.3730   81.0070   -9.9890 C.2   685  GLY685      0.2309
     84  O         53.6120   81.1820   -9.0330 O.2   685  GLY685     -0.2863
     85  N         51.9920   80.2210  -12.4700 N.3   687  LYS687     -0.1245
     86  CA        51.0850   79.4260  -13.3010 C.3   687  LYS687      0.1561
     87  C         49.6030   79.5570  -12.9240 C.2   687  LYS687      0.2260
     88  O         48.7350   79.3710  -13.7700 O.2   687  LYS687     -0.2867
     89  CB        51.4980   77.9540  -13.2820 C.3   687  LYS687      0.0271
     90  CG        51.4120   77.2890  -11.9530 C.3   687  LYS687      0.0035
     91  CD        51.5790   75.7770  -12.1220 C.3   687  LYS687      0.0206
     92  CE        51.6950   75.1960  -10.7380 C.3   687  LYS687      0.1093
     93  NZ        51.6610   73.7190  -10.8690 N.3   687  LYS687     -0.1314
@<TRIPOS>BOND
     1    21    22    2
     2    21    20    1
     3    19    20    1
     4    20    23    1
     5    23    24    1
     6    24    25    1
     7    36    37    1
     8    12    11    2
     9    39    38    2
    10    40    37    1
    11    40    41    1
    12    37    38    1
    13    25    26   ar
    14    25    27   ar
    15    15    14    1
    16    15    16    2
    17    14    17    1
    18    14    13    1
    19    11    13   am
    20    11    10    1
    21    41    42    1
    22    17    18    1
    23    88    87    2
    24    43    42    1
    25    10     9    1
    26    86    89    1
    27    86    87    1
    28    86    85    1
    29    89    90    1
    30     9     3   am
    31    91    90    1
    32    91    92    1
    33    28    29    1
    34    31    30    2
    35    29    30    1
    36    29    32    1
    37     3     4    2
    38     3     2    1
    39    93    92    1
    40     1     2    1
    41    32    33    1
    42     2     5    1
    43    51    49   ar
    44    83    82    1
    45    83    84    2
    46    82    81    1
    47    33    34    1
    48    49    50   ar
    49    49    48    1
    50     5     7    1
    51     5     6    1
    52    81    77   am
    53    35    34    1
    54    44    45    1
    55    48    45    1
    56    78    77    2
    57     6     8    1
    58    77    76    1
    59    45    46    1
    60    47    46    2
    61    63    64    1
    62    63    60    1
    63    76    75    1
    64    76    79    1
    65    80    79    1
    66    66    64   ar
    67    66    68   ar
    68    64    65   ar
    69    68    67   ar
    70    59    60    1
    71    65    67   ar
    72    60    61    1
    73    58    57    1
    74    58    52    1
    75    57    56    1
    76    62    61    2
    77    52    53    1
    78    56    53    1
    79    74    73    1
    80    53    54    1
    81    73    70    1
    82    69    70    1
    83    54    55    2
    84    70    71    1
    85    71    72    2
