@<TRIPOS>MOLECULE
tmp/3bqdA00.pdb
 147 138 0 0 0
SMALL
GASTEIGER

@<TRIPOS>ATOM
      1  N         28.4730   30.6450    5.8900 N.3    48  ILE48      -0.1245
      2  CA        27.0600   30.7990    5.5720 C.3    48  ILE48       0.1561
      3  C         26.9370   31.9110    4.5370 C.2    48  ILE48       0.2260
      4  O         26.1760   31.7910    3.5740 O.2    48  ILE48      -0.2867
      5  CB        26.2380   31.1700    6.8160 C.3    48  ILE48       0.0252
      6  CG1       26.0910   29.9470    7.7290 C.3    48  ILE48       0.0019
      7  CG2       24.8750   31.7090    6.3940 C.3    48  ILE48       0.0019
      8  CD1       25.5530   30.2910    9.1020 C.3    48  ILE48       0.0001
      9  N         27.7930   30.4160    1.2560 N.3    51  VAL51      -0.1231
     10  CA        26.7780   29.5400    0.6790 C.3    51  VAL51       0.1692
     11  C         25.7430   30.3910   -0.0400 C.2    51  VAL51       0.2591
     12  O         25.3910   30.1290   -1.1900 O.2    51  VAL51      -0.2718
     13  CB        26.0840   28.7030    1.7450 C.3    51  VAL51       0.0266
     14  CG1       25.1360   27.7140    1.0830 C.3    51  VAL51       0.0020
     15  CG2       27.1190   27.9770    2.5770 C.3    51  VAL51       0.0020
     16  N         25.2660   31.4230    0.6390 N.am   52  LYS52      -0.1980
     17  CA        24.2970   32.3190    0.0290 C.3    52  LYS52       0.1596
     18  C         24.8580   32.8150   -1.2990 C.2    52  LYS52       0.2287
     19  O         24.1780   32.7830   -2.3230 O.2    52  LYS52      -0.2864
     20  CB        23.9990   33.4820    0.9750 C.3    52  LYS52       0.0298
     21  CG        23.2440   33.0270    2.2140 C.3    52  LYS52       0.0038
     22  CD        23.0040   34.1480    3.1990 C.3    52  LYS52       0.0206
     23  CE        22.2420   33.6330    4.4080 C.3    52  LYS52       0.1093
     24  NZ        21.9760   34.7120    5.3960 N.3    52  LYS52      -0.1314
     25  N         24.6500   30.3920   -4.1650 N.3    55  LYS55      -0.1245
     26  CA        23.3040   30.2910   -4.7130 C.3    55  LYS55       0.1561
     27  C         22.9770   31.4320   -5.6560 C.2    55  LYS55       0.2260
     28  O         22.0420   31.3290   -6.4490 O.2    55  LYS55      -0.2867
     29  CB        22.2700   30.2450   -3.5870 C.3    55  LYS55       0.0271
     30  CG        22.4890   29.1030   -2.6080 C.3    55  LYS55       0.0035
     31  CD        21.2090   28.7180   -1.8810 C.3    55  LYS55       0.0206
     32  CE        20.6080   29.8780   -1.0950 C.3    55  LYS55       0.1093
     33  NZ        19.4590   29.4050   -0.2670 N.3    55  LYS55      -0.1314
     34  N         24.6550   28.0940  -10.9490 N.3    60  PHE60      -0.1227
     35  CA        24.9800   27.2000   -9.8470 C.3    60  PHE60       0.1736
     36  C         23.8000   26.3750   -9.3650 C.2    60  PHE60       0.2595
     37  O         23.8970   25.1510   -9.2730 O.2    60  PHE60      -0.2718
     38  CB        25.5580   27.9550   -8.6490 C.3    60  PHE60       0.0547
     39  CG        25.9890   27.0440   -7.5140 C.ar   60  PHE60      -0.0202
     40  CD1       27.1050   26.2200   -7.6480 C.ar   60  PHE60      -0.0042
     41  CD2       25.2690   26.9990   -6.3260 C.ar   60  PHE60      -0.0042
     42  CE1       27.4890   25.3730   -6.6200 C.ar   60  PHE60      -0.0003
     43  CE2       25.6510   26.1500   -5.2920 C.ar   60  PHE60      -0.0003
     44  CZ        26.7610   25.3380   -5.4410 C.ar   60  PHE60      -0.0000
     45  N         22.6870   27.0300   -9.0510 N.am   61  ARG61      -0.1980
     46  CA        21.5300   26.2940   -8.5540 C.3    61  ARG61       0.1597
     47  C         20.7840   25.4390   -9.5760 C.2    61  ARG61       0.2287
     48  O         19.8420   24.7210   -9.2310 O.2    61  ARG61      -0.2864
     49  CB        20.5670   27.2360   -7.8450 C.3    61  ARG61       0.0334
     50  CG        20.2010   28.5010   -8.5770 C.3    61  ARG61       0.0492
     51  CD        19.6050   29.5060   -7.5820 C.3    61  ARG61       0.2205
     52  NE        18.6080   28.9140   -6.6760 N.pl3  61  ARG61      -0.0865
     53  CZ        18.8810   28.1410   -5.6210 C.cat  61  ARG61       0.5346
     54  NH1       20.1370   27.8410   -5.3010 N.pl3  61  ARG61       0.1354
     55  NH2       17.8890   27.6570   -4.8830 N.pl3  61  ARG61       0.1354
     56  N         20.6890   19.5920   -6.3990 N.3    65  LEU65      -0.1231
     57  CA        20.9610   20.0740   -5.0530 C.3    65  LEU65       0.1693
     58  C         22.0230   19.2330   -4.3640 C.2    65  LEU65       0.2592
     59  O         22.6830   19.7020   -3.4420 O.2    65  LEU65      -0.2718
     60  CB        19.6880   20.0630   -4.2080 C.3    65  LEU65       0.0284
     61  CG        19.7330   21.0240   -3.0160 C.3    65  LEU65       0.0019
     62  CD1       18.9360   22.2850   -3.3690 C.3    65  LEU65       0.0001
     63  CD2       19.1640   20.3580   -1.7610 C.3    65  LEU65       0.0001
     64  N         22.1830   17.9890   -4.8050 N.am   66  ASP66      -0.1974
     65  CA        23.1870   17.1070   -4.2160 C.3    66  ASP66       0.1709
     66  C         24.5890   17.5420   -4.6340 C.2    66  ASP66       0.2293
     67  O         25.5360   17.4290   -3.8600 O.2    66  ASP66      -0.2864
     68  CB        22.9510   15.6450   -4.6310 C.3    66  ASP66       0.1436
     69  CG        21.6740   15.0560   -4.0290 C.2    66  ASP66       0.3671
     70  OD1       21.4410   15.2460   -2.8120 O.co2  66  ASP66      -0.2456
     71  OD2       20.9080   14.3930   -4.7660 O.co2  66  ASP66      -0.2456
     72  N         25.3040   20.6420   -5.4610 N.3    68  GLN68      -0.1231
     73  CA        25.5100   21.9330   -4.8340 C.3    68  GLN68       0.1698
     74  C         26.1200   21.7250   -3.4510 C.2    68  GLN68       0.2592
     75  O         26.8730   22.5650   -2.9600 O.2    68  GLN68      -0.2718
     76  CB        24.1840   22.6760   -4.7060 C.3    68  GLN68       0.0381
     77  CG        23.6720   23.2290   -6.0100 C.3    68  GLN68       0.0905
     78  CD        22.2960   23.8330   -5.8720 C.2    68  GLN68       0.2608
     79  OE1       22.0760   24.7490   -5.0730 O.2    68  GLN68      -0.2717
     80  NE2       21.3510   23.3200   -6.6510 N.am   68  GLN68      -0.0878
     81  N         25.7880   20.6030   -2.8240 N.am   69  MET69      -0.1979
     82  CA        26.3130   20.2920   -1.5020 C.3    69  MET69       0.1605
     83  C         27.7280   19.7570   -1.5840 C.2    69  MET69       0.2287
     84  O         28.6120   20.1900   -0.8470 O.2    69  MET69      -0.2864
     85  CB        25.4500   19.2460   -0.7970 C.3    69  MET69       0.0413
     86  CG        24.1640   19.7770   -0.1990 C.3    69  MET69       0.0598
     87  SD        23.4590   18.5840    0.9650 S.3    69  MET69      -0.1393
     88  CE        24.2400   19.1330    2.5290 C.3    69  MET69       0.0692
     89  N         30.1840   22.7230   -2.3210 N.3    72  LEU72      -0.1231
     90  CA        30.4700   23.5640   -1.1630 C.3    72  LEU72       0.1693
     91  C         31.2510   22.8780   -0.0370 C.2    72  LEU72       0.2591
     92  O         32.0040   23.5280    0.6950 O.2    72  LEU72      -0.2718
     93  CB        29.1680   24.1560   -0.6140 C.3    72  LEU72       0.0284
     94  CG        28.6270   25.3610   -1.4020 C.3    72  LEU72       0.0019
     95  CD1       27.1370   25.5540   -1.1400 C.3    72  LEU72       0.0001
     96  CD2       29.3990   26.6130   -1.0130 C.3    72  LEU72       0.0001
     97  N         31.0830   21.5690    0.1060 N.am   73  GLN73      -0.1979
     98  CA        31.7790   20.8420    1.1640 C.3    73  GLN73       0.1601
     99  C         33.2080   20.5310    0.7650 C.2    73  GLN73       0.2287
    100  O         34.0550   20.2930    1.6220 O.2    73  GLN73      -0.2864
    101  CB        31.0560   19.5380    1.4810 C.3    73  GLN73       0.0394
    102  CG        29.6130   19.7170    1.9000 C.3    73  GLN73       0.0908
    103  CD        28.9480   18.3960    2.2290 C.2    73  GLN73       0.2608
    104  OE1       28.9740   17.4590    1.4230 O.2    73  GLN73      -0.2717
    105  NE2       28.3490   18.3100    3.4180 N.am   73  GLN73      -0.0878
    106  N         28.2650   25.0890   15.0540 N.3   227  GLU227     -0.1231
    107  CA        27.4240   23.9570   14.6390 C.3   227  GLU227      0.1699
    108  C         27.4300   23.5080   13.1860 C.2   227  GLU227      0.2592
    109  O         27.6650   22.3280   12.8990 O.2   227  GLU227     -0.2718
    110  CB        25.9680   24.1880   15.0580 C.3   227  GLU227      0.0402
    111  CG        25.1370   22.8990   15.0590 C.3   227  GLU227      0.1161
    112  CD        23.6910   23.0930   15.5290 C.2   227  GLU227      0.3649
    113  OE1       23.4770   23.7050   16.6040 O.co2 227  GLU227     -0.2457
    114  OE2       22.7700   22.6140   14.8230 O.co2 227  GLU227     -0.2457
    115  N         27.1530   24.4250   12.2680 N.am  228  MET228     -0.1979
    116  CA        27.1170   24.0570   10.8580 C.3   228  MET228      0.1605
    117  C         28.4800   23.6520   10.3210 C.2   228  MET228      0.2287
    118  O         28.6270   22.6220    9.6530 O.2   228  MET228     -0.2864
    119  CB        26.5820   25.2030   10.0080 C.3   228  MET228      0.0413
    120  CG        26.4220   24.7890    8.5610 C.3   228  MET228      0.0598
    121  SD        25.8990   26.1050    7.4930 S.3   228  MET228     -0.1393
    122  CE        26.2940   25.3910    5.9680 C.3   228  MET228      0.0692
    123  N         29.4560   20.2860   11.2320 N.3   231  GLU231     -0.1231
    124  CA        28.7820   19.2650   10.4380 C.3   231  GLU231      0.1699
    125  C         29.4990   19.0010    9.1260 C.2   231  GLU231      0.2592
    126  O         29.7450   17.8520    8.7640 O.2   231  GLU231     -0.2718
    127  CB        27.3450   19.6800   10.1450 C.3   231  GLU231      0.0402
    128  CG        26.4280   19.6840   11.3510 C.3   231  GLU231      0.1161
    129  CD        25.0070   20.0780   10.9810 C.2   231  GLU231      0.3649
    130  OE1       24.4250   19.4220   10.0890 O.co2 231  GLU231     -0.2457
    131  OE2       24.4750   21.0420   11.5760 O.co2 231  GLU231     -0.2457
    132  N         29.8350   20.0680    8.4090 N.am  232  ILE232     -0.1980
    133  CA        30.5190   19.9200    7.1340 C.3   232  ILE232      0.1595
    134  C         31.8420   19.1890    7.3010 C.2   232  ILE232      0.2287
    135  O         32.2080   18.3610    6.4700 O.2   232  ILE232     -0.2864
    136  CB        30.7890   21.2840    6.4840 C.3   232  ILE232      0.0276
    137  CG1       29.4740   22.0490    6.3300 C.3   232  ILE232      0.0022
    138  CG2       31.4310   21.0900    5.1260 C.3   232  ILE232      0.0022
    139  CD1       29.6080   23.4160    5.7050 C.3   232  ILE232      0.0001
    140  N         31.4880   15.5550    8.0670 N.3   235  ASN235     -0.1240
    141  CA        30.9800   15.0020    6.8200 C.3   235  ASN235      0.1653
    142  C         32.0420   14.7790    5.7370 C.2   235  ASN235      0.2266
    143  O         31.9500   13.8370    4.9450 O.2   235  ASN235     -0.2867
    144  CB        29.8930   15.9410    6.2920 C.3   235  ASN235      0.1155
    145  CG        28.7430   15.2030    5.6460 C.2   235  ASN235      0.2627
    146  OD1       28.8850   14.6380    4.5580 O.2   235  ASN235     -0.2716
    147  ND2       27.5890   15.1980    6.3200 N.am  235  ASN235     -0.0877
@<TRIPOS>BOND
     1    34    35    1
     2    35    36    1
     3    35    38    1
     4    47    48    2
     5    47    46    1
     6    36    37    2
     7    36    45   am
     8    45    46    1
     9    38    39    1
    10    50    49    1
    11    50    51    1
    12    46    49    1
    13    40    39   ar
    14    40    42   ar
    15    51    52    1
    16    39    41   ar
    17    52    53    2
    18    80    78   am
    19    42    44   ar
    20    28    27    2
    21    56    57    1
    22    41    43   ar
    23    77    78    1
    24    77    76    1
    25    78    79    2
    26    27    26    1
    27    53    54    1
    28    53    55    1
    29    72    73    1
    30    44    43   ar
    31    57    58    1
    32    57    60    1
    33    73    76    1
    34    73    74    1
    35    64    58   am
    36    64    65    1
    37    71    69   ar
    38    26    25    1
    39    26    29    1
    40    66    65    1
    41    66    67    2
    42    68    65    1
    43    68    69    1
    44    58    59    2
    45    60    61    1
    46    69    70   ar
    47    29    30    1
    48    74    75    2
    49    74    81   am
    50    62    61    1
    51    61    63    1
    52    81    82    1
    53    30    31    1
    54    19    18    2
    55    89    90    1
    56    31    32    1
    57    83    82    1
    58    83    84    2
    59    82    85    1
    60    94    95    1
    61    94    96    1
    62    94    93    1
    63    18    17    1
    64    12    11    2
    65    90    93    1
    66    90    91    1
    67    32    33    1
    68    85    86    1
    69    86    87    1
    70    11    16   am
    71    11    10    1
    72    91    97   am
    73    91    92    2
    74    17    16    1
    75    17    20    1
    76    97    98    1
    77    10     9    1
    78    10    13    1
    79    99    98    1
    80    99   100    2
    81    87    88    1
    82    20    21    1
    83    14    13    1
    84    98   101    1
    85   104   103    2
    86   101   102    1
    87    13    15    1
    88   102   103    1
    89    21    22    1
    90   103   105   am
    91    22    23    1
    92     4     3    2
    93    23    24    1
    94     3     2    1
    95   146   145    2
    96   143   142    2
    97   138   136    1
    98     2     1    1
    99     2     5    1
   100   145   144    1
   101   145   147   am
   102   139   137    1
   103   142   141    1
   104   122   121    1
   105   144   141    1
   106   137   136    1
   107     7     5    1
   108   135   134    2
   109   136   133    1
   110     5     6    1
   111   141   140    1
   112   133   134    1
   113   133   132    1
   114   121   120    1
   115     6     8    1
   116   132   125   am
   117   120   119    1
   118   126   125    2
   119   125   124    1
   120   118   117    2
   121   119   116    1
   122   130   129   ar
   123   127   124    1
   124   127   128    1
   125   117   116    1
   126   124   123    1
   127   116   115    1
   128   129   128    1
   129   129   131   ar
   130   115   108   am
   131   109   108    2
   132   108   107    1
   133   107   106    1
   134   107   110    1
   135   114   112   ar
   136   110   111    1
   137   111   112    1
   138   112   113   ar
