@<TRIPOS>MOLECULE
tmp/3bqdA01.pdb
 198 186 0 0 0
SMALL
GASTEIGER

@<TRIPOS>ATOM
      1  N         42.0360   30.9350   17.7820 N.3    36  MET36      -0.1245
      2  CA        41.4340   29.8480   17.0190 C.3    36  MET36       0.1570
      3  C         39.9380   29.7290   17.2500 C.2    36  MET36       0.2261
      4  O         39.1620   29.7200   16.2990 O.2    36  MET36      -0.2867
      5  CB        42.1170   28.5240   17.3610 C.3    36  MET36       0.0387
      6  CG        43.5820   28.4800   16.9590 C.3    36  MET36       0.0595
      7  SD        44.4000   26.8680   17.1730 S.3    36  MET36      -0.1393
      8  CE        45.4400   27.2170   18.4770 C.3    36  MET36       0.0692
      9  N         38.2570   32.6610   15.7170 N.3    39  LEU39      -0.1231
     10  CA        38.2710   32.5720   14.2630 C.3    39  LEU39       0.1693
     11  C         37.3320   31.4740   13.7810 C.2    39  LEU39       0.2592
     12  O         36.7040   31.6110   12.7420 O.2    39  LEU39      -0.2718
     13  CB        39.6910   32.3150   13.7390 C.3    39  LEU39       0.0284
     14  CG        40.8170   33.3360   13.9500 C.3    39  LEU39       0.0019
     15  CD1       42.0620   32.8040   13.2690 C.3    39  LEU39       0.0001
     16  CD2       40.4620   34.7020   13.3870 C.3    39  LEU39       0.0001
     17  N         37.2360   30.3720   14.5120 N.am   40  ASN40      -0.1974
     18  CA        36.3190   29.3200   14.0870 C.3    40  ASN40       0.1688
     19  C         34.8880   29.8680   14.1190 C.2    40  ASN40       0.2292
     20  O         34.0920   29.5990   13.2240 O.2    40  ASN40      -0.2864
     21  CB        36.4170   28.0870   14.9900 C.3    40  ASN40       0.1181
     22  CG        37.5670   27.1760   14.6150 C.2    40  ASN40       0.2629
     23  OD1       37.8580   26.9860   13.4460 O.2    40  ASN40      -0.2716
     24  ND2       38.2160   26.5930   15.6120 N.am   40  ASN40      -0.0877
     25  N         33.8160   33.0380   13.7770 N.3    42  LEU42      -0.1231
     26  CA        33.6060   33.9570   12.6700 C.3    42  LEU42       0.1693
     27  C         33.5520   33.1390   11.3800 C.2    42  LEU42       0.2592
     28  O         32.7720   33.4240   10.4760 O.2    42  LEU42      -0.2718
     29  CB        34.7450   34.9870   12.6060 C.3    42  LEU42       0.0284
     30  CG        34.6680   36.0540   11.5040 C.3    42  LEU42       0.0019
     31  CD1       33.3780   36.8490   11.6320 C.3    42  LEU42       0.0001
     32  CD2       35.8570   36.9900   11.6170 C.3    42  LEU42       0.0001
     33  N         34.3870   32.1100   11.3060 N.am   43  GLY43      -0.1957
     34  CA        34.4090   31.2730   10.1290 C.3    43  GLY43       0.1869
     35  C         33.0310   30.7430    9.8080 C.2    43  GLY43       0.2309
     36  O         32.6210   30.7620    8.6500 O.2    43  GLY43      -0.2863
     37  N         31.1210   33.3410    8.1270 N.3    46  GLN46      -0.1245
     38  CA        31.7790   33.5560    6.8460 C.3    46  GLN46       0.1566
     39  C         31.3730   32.4960    5.8090 C.2    46  GLN46       0.2260
     40  O         31.2370   32.7880    4.6170 O.2    46  GLN46      -0.2867
     41  CB        33.2850   33.5110    7.0760 C.3    46  GLN46       0.0367
     42  CG        34.0910   34.5670    6.3650 C.3    46  GLN46       0.0905
     43  CD        33.7890   35.9740    6.8280 C.2    46  GLN46       0.2608
     44  OE1       32.9160   36.6410    6.2830 O.2    46  GLN46      -0.2717
     45  NE2       34.5110   36.4320    7.8350 N.am   46  GLN46      -0.0878
     46  N         34.8410   24.7840    0.5050 N.3    76  TRP76      -0.1227
     47  CA        34.7050   25.8840    1.4400 C.3    76  TRP76       0.1737
     48  C         36.0430   26.4420    1.9280 C.2    76  TRP76       0.2595
     49  O         36.2560   27.6540    1.8760 O.2    76  TRP76      -0.2718
     50  CB        33.7910   25.5160    2.6210 C.3    76  TRP76       0.0564
     51  CG        34.3600   24.5710    3.6300 C.ar   76  TRP76       0.0003
     52  CD1       34.3150   23.2100    3.5960 C.ar   76  TRP76       0.0946
     53  CD2       35.0680   24.9220    4.8270 C.ar   76  TRP76       0.0152
     54  NE1       34.9500   22.6870    4.6990 N.ar   76  TRP76      -0.2442
     55  CE2       35.4220   23.7170    5.4710 C.ar   76  TRP76       0.0810
     56  CE3       35.4380   26.1400    5.4170 C.ar   76  TRP76       0.0012
     57  CZ2       36.1360   23.6900    6.6750 C.ar   76  TRP76       0.0191
     58  CZ3       36.1520   26.1120    6.6190 C.ar   76  TRP76       0.0001
     59  CH2       36.4900   24.8900    7.2320 C.ar   76  TRP76       0.0015
     60  N         36.9570   25.5870    2.3790 N.am   77  MET77      -0.1979
     61  CA        38.2530   26.0830    2.8560 C.3    77  MET77       0.1605
     62  C         38.9380   26.9280    1.7900 C.2    77  MET77       0.2287
     63  O         39.6010   27.9180    2.0850 O.2    77  MET77      -0.2864
     64  CB        39.1800   24.9280    3.2160 C.3    77  MET77       0.0413
     65  CG        40.4950   25.3830    3.7840 C.3    77  MET77       0.0598
     66  SD        40.2070   26.3640    5.2630 S.3    77  MET77      -0.1393
     67  CE        39.8840   25.1000    6.4740 C.3    77  MET77       0.0692
     68  N         37.3690   30.2980    1.3780 N.3    80  MET80      -0.1230
     69  CA        37.7250   31.0110    2.5860 C.3    80  MET80       0.1702
     70  C         39.1560   31.5730    2.5460 C.2    80  MET80       0.2592
     71  O         39.3840   32.7580    2.8190 O.2    80  MET80      -0.2718
     72  CB        37.5350   30.0660    3.7730 C.3    80  MET80       0.0401
     73  CG        36.8510   30.7090    4.9640 C.3    80  MET80       0.0596
     74  SD        35.0850   31.1990    4.8050 S.3    80  MET80      -0.1393
     75  CE        34.7950   31.3470    3.0740 C.3    80  MET80       0.0692
     76  N         40.1090   30.7150    2.1910 N.am   81  ALA81      -0.1980
     77  CA        41.5090   31.1010    2.1110 C.3    81  ALA81       0.1597
     78  C         41.7170   32.1470    1.0230 C.2    81  ALA81       0.2287
     79  O         42.4630   33.1080    1.2130 O.2    81  ALA81      -0.2864
     80  CB        42.3700   29.8740    1.8280 C.3    81  ALA81       0.0319
     81  N         39.4600   34.3260   -0.2860 N.3    83  ALA83      -0.1231
     82  CA        38.8490   35.5990    0.0710 C.3    83  ALA83       0.1694
     83  C         39.6510   36.2930    1.1790 C.2    83  ALA83       0.2591
     84  O         39.8270   37.5170    1.1540 O.2    83  ALA83      -0.2718
     85  CB        37.4000   35.3830    0.5000 C.3    83  ALA83       0.0304
     86  N         40.1310   35.5220    2.1540 N.am   84  LEU84      -0.1980
     87  CA        40.9280   36.1040    3.2270 C.3    84  LEU84       0.1596
     88  C         42.2280   36.6470    2.6500 C.2    84  LEU84       0.2287
     89  O         42.7500   37.6660    3.1070 O.2    84  LEU84      -0.2864
     90  CB        41.2640   35.0640    4.2850 C.3    84  LEU84       0.0297
     91  CG        42.3310   35.5450    5.2760 C.3    84  LEU84       0.0022
     92  CD1       41.8100   36.7470    6.0110 C.3    84  LEU84       0.0001
     93  CD2       42.7070   34.4520    6.2580 C.3    84  LEU84       0.0001
     94  N         41.3880   39.9190    0.8310 N.3    87  ARG87      -0.1245
     95  CA        41.1130   40.9950    1.7500 C.3    87  ARG87       0.1563
     96  C         42.3730   41.4610    2.4640 C.2    87  ARG87       0.2260
     97  O         42.5070   42.6390    2.7990 O.2    87  ARG87      -0.2867
     98  CB        40.0520   40.5890    2.7620 C.3    87  ARG87       0.0307
     99  CG        39.3820   41.8180    3.3320 C.3    87  ARG87       0.0489
    100  CD        38.1620   41.4810    4.1290 C.3    87  ARG87       0.2205
    101  NE        37.1820   40.7880    3.3130 N.pl3  87  ARG87      -0.0865
    102  CZ        36.0840   40.2520    3.8180 C.cat  87  ARG87       0.5346
    103  NH1       35.8630   40.3580    5.1240 N.pl3  87  ARG87       0.1354
    104  NH2       35.2290   39.5980    3.0370 N.pl3  87  ARG87       0.1354
    105  N         43.7930   39.9680    7.5020 N.3    98  CYS98      -0.1221
    106  CA        42.6390   40.7730    7.8720 C.3    98  CYS98       0.1808
    107  C         41.3320   39.9870    7.8630 C.2    98  CYS98       0.2601
    108  O         40.6130   40.0120    6.8820 O.2    98  CYS98      -0.2717
    109  CB        42.5560   41.9560    6.9030 C.3    98  CYS98       0.0970
    110  SG        41.3450   43.2200    7.3170 S.3    98  CYS98      -0.0800
    111  N         41.0070   39.3090    8.9600 N.am   99  PHE99      -0.1976
    112  CA        39.7730   38.5110    9.0080 C.3    99  PHE99       0.1639
    113  C         38.4840   39.3350    9.0210 C.2    99  PHE99       0.2290
    114  O         37.4490   38.8930    8.5190 O.2    99  PHE99      -0.2864
    115  CB        39.7850   37.5630   10.2150 C.3    99  PHE99       0.0560
    116  CG        40.8470   36.4960   10.1460 C.ar   99  PHE99      -0.0200
    117  CD1       42.1500   36.7550   10.5640 C.ar   99  PHE99      -0.0042
    118  CD2       40.5470   35.2310    9.6620 C.ar   99  PHE99      -0.0042
    119  CE1       43.1410   35.7610   10.5010 C.ar   99  PHE99      -0.0003
    120  CE2       41.5290   34.2310    9.5940 C.ar   99  PHE99      -0.0003
    121  CZ        42.8290   34.4990   10.0160 C.ar   99  PHE99      -0.0000
    122  N         50.0430   27.7290   11.0730 N.3   118  GLN118     -0.1245
    123  CA        48.6950   27.7660   10.5130 C.3   118  GLN118      0.1566
    124  C         48.5670   28.9590    9.5550 C.2   118  GLN118      0.2260
    125  O         48.1300   28.8140    8.4190 O.2   118  GLN118     -0.2867
    126  CB        47.6580   27.9050   11.6300 C.3   118  GLN118      0.0367
    127  CG        47.6830   26.7940   12.6750 C.3   118  GLN118      0.0905
    128  CD        46.7030   27.0370   13.8280 C.2   118  GLN118      0.2608
    129  OE1       45.4880   26.9130   13.6640 O.2   118  GLN118     -0.2717
    130  NE2       47.2360   27.3960   15.0000 N.am  118  GLN118     -0.0878
    131  N         48.0190   30.9690    4.8560 N.3   122  MET122     -0.1245
    132  CA        47.0530   32.0050    4.5500 C.3   122  MET122      0.1570
    133  C         47.7900   33.2330    3.9970 C.2   122  MET122      0.2261
    134  O         47.2840   33.9290    3.1080 O.2   122  MET122     -0.2867
    135  CB        46.2730   32.3550    5.8130 C.3   122  MET122      0.0387
    136  CG        45.4030   31.2190    6.3280 C.3   122  MET122      0.0595
    137  SD        44.7140   31.6340    7.9290 S.3   122  MET122     -0.1393
    138  CE        44.8540   30.0900    8.7940 C.3   122  MET122      0.0692
    139  N         45.8170   23.7060    5.2750 N.3   208  LEU208     -0.1245
    140  CA        44.8530   24.2920    6.2060 C.3   208  LEU208      0.1561
    141  C         43.8630   23.2670    6.6960 C.2   208  LEU208      0.2260
    142  O         43.3960   23.3470    7.8250 O.2   208  LEU208     -0.2867
    143  CB        44.0810   25.4260    5.5460 C.3   208  LEU208      0.0270
    144  CG        44.8730   26.6500    5.1190 C.3   208  LEU208      0.0019
    145  CD1       43.9780   27.5190    4.2830 C.3   208  LEU208      0.0001
    146  CD2       45.3690   27.4010    6.3220 C.3   208  LEU208      0.0001
    147  N         45.1710   20.9950    9.7410 N.3   211  TYR211     -0.1227
    148  CA        45.0320   21.6140   11.0480 C.3   211  TYR211      0.1736
    149  C         43.5770   21.6310   11.4670 C.2   211  TYR211      0.2595
    150  O         43.2540   21.4820   12.6410 O.2   211  TYR211     -0.2718
    151  CB        45.5550   23.0360   11.0180 C.3   211  TYR211      0.0548
    152  CG        47.0490   23.1350   10.9460 C.ar  211  TYR211     -0.0200
    153  CD1       47.8370   22.7890   12.0360 C.ar  211  TYR211     -0.0009
    154  CD2       47.6780   23.5700    9.7850 C.ar  211  TYR211     -0.0009
    155  CE1       49.2170   22.8690   11.9700 C.ar  211  TYR211      0.0417
    156  CE2       49.0560   23.6490    9.7060 C.ar  211  TYR211      0.0417
    157  CZ        49.8220   23.2960   10.7990 C.ar  211  TYR211      0.1957
    158  OH        51.1960   23.3380   10.7100 O.3   211  TYR211     -0.2866
    159  N         42.7010   21.8290   10.4950 N.am  212  CYS212     -0.1970
    160  CA        41.2740   21.8810   10.7540 C.3   212  CYS212      0.1712
    161  C         40.7560   20.5360   11.2310 C.2   212  CYS212      0.2296
    162  O         39.9870   20.4720   12.1930 O.2   212  CYS212     -0.2864
    163  CB        40.5270   22.2960    9.4920 C.3   212  CYS212      0.0983
    164  SG        38.7750   22.4890    9.7580 S.3   212  CYS212     -0.0798
    165  N         42.5740   19.4100   14.6560 N.3   215  THR215     -0.1218
    166  CA        42.0030   20.2140   15.7250 C.3   215  THR215      0.1862
    167  C         40.5610   19.8820   16.0800 C.2   215  THR215      0.2287
    168  O         40.1800   19.9260   17.2420 O.2   215  THR215     -0.2866
    169  CB        42.0810   21.6960   15.3660 C.3   215  THR215      0.1770
    170  OG1       43.4210   22.1540   15.5610 O.3   215  THR215     -0.2211
    171  CG2       41.1470   22.4960   16.2220 C.3   215  THR215      0.0375
    172  N         38.9640   22.6160   21.1020 N.3   223  ILE223     -0.1245
    173  CA        38.8560   23.8870   20.3870 C.3   223  ILE223      0.1561
    174  C         37.4540   23.9160   19.7930 C.2   223  ILE223      0.2260
    175  O         37.0550   22.9890   19.0850 O.2   223  ILE223     -0.2867
    176  CB        39.9050   23.9930   19.2610 C.3   223  ILE223      0.0252
    177  CG1       41.3020   24.0640   19.8770 C.3   223  ILE223      0.0019
    178  CG2       39.6460   25.2220   18.4140 C.3   223  ILE223      0.0019
    179  CD1       42.4190   24.0870   18.8760 C.3   223  ILE223      0.0001
    180  N         34.1750   24.7370   17.5360 N.3   225  PHE225     -0.1241
    181  CA        33.7780   24.9600   16.1460 C.3   225  PHE225      0.1605
    182  C         32.2660   25.1820   16.1400 C.2   225  PHE225      0.2264
    183  O         31.5410   24.4880   16.8440 O.2   225  PHE225     -0.2867
    184  CB        34.0840   23.7400   15.2760 C.3   225  PHE225      0.0534
    185  CG        35.5260   23.6060   14.8900 C.ar  225  PHE225     -0.0203
    186  CD1       36.4810   23.2420   15.8280 C.ar  225  PHE225     -0.0042
    187  CD2       35.9300   23.8400   13.5800 C.ar  225  PHE225     -0.0042
    188  CE1       37.8120   23.1120   15.4640 C.ar  225  PHE225     -0.0003
    189  CE2       37.2570   23.7120   13.2110 C.ar  225  PHE225     -0.0003
    190  CZ        38.1980   23.3470   14.1520 C.ar  225  PHE225     -0.0000
    191  N         29.4750   24.4780   10.6020 N.3   229  LEU229     -0.1245
    192  CA        30.8180   24.1960   10.1430 C.3   229  LEU229      0.1561
    193  C         31.2460   22.8190   10.6500 C.2   229  LEU229      0.2260
    194  O         31.8390   22.0280    9.9130 O.2   229  LEU229     -0.2867
    195  CB        31.7620   25.2740   10.6570 C.3   229  LEU229      0.0270
    196  CG        33.1170   25.3730    9.9750 C.3   229  LEU229      0.0019
    197  CD1       32.9340   25.5260    8.4760 C.3   229  LEU229      0.0001
    198  CD2       33.8620   26.5680   10.5560 C.3   229  LEU229      0.0001
@<TRIPOS>BOND
     1    81    82    1
     2    82    85    1
     3    82    83    1
     4    46    47    1
     5    94    95    1
     6    78    79    2
     7    78    77    1
     8    84    83    2
     9    83    86   am
    10    68    69    1
    11    47    48    1
    12    47    50    1
    13    95    96    1
    14    95    98    1
    15    62    63    2
    16    62    61    1
    17    80    77    1
    18    49    48    2
    19    48    60   am
    20    77    76    1
    21    86    87    1
    22    76    70   am
    23    60    61    1
    24    96    97    2
    25    70    69    1
    26    70    71    2
    27    69    72    1
    28    50    51    1
    29    88    89    2
    30    88    87    1
    31    98    99    1
    32    61    64    1
    33   104   102    1
    34    75    74    1
    35   134   133    2
    36    64    65    1
    37    87    90    1
    38   101   102    2
    39   101   100    1
    40    99   100    1
    41    52    51   ar
    42    52    54   ar
    43    51    53   ar
    44    72    73    1
    45    65    66    1
    46   102   103    1
    47   133   132    1
    48   145   144    1
    49    90    91    1
    50   132   131    1
    51   132   135    1
    52    40    39    2
    53    54    55   ar
    54    74    73    1
    55    53    56   ar
    56    53    55   ar
    57   144   143    1
    58   144   146    1
    59    66    67    1
    60   139   140    1
    61    91    92    1
    62    91    93    1
    63    56    58   ar
    64    55    57   ar
    65   143   140    1
    66    39    38    1
    67   135   136    1
    68   140   141    1
    69    44    43    2
    70   136   137    1
    71    42    43    1
    72    42    41    1
    73    58    59   ar
    74    57    59   ar
    75   141   142    2
    76    43    45   am
    77    38    41    1
    78    38    37    1
    79   108   107    2
    80   109   110    1
    81   109   106    1
    82   105   106    1
    83   107   106    1
    84   107   111   am
    85   137   138    1
    86   125   124    2
    87   197   196    1
    88   114   113    2
    89    36    35    2
    90   111   112    1
    91   112   113    1
    92   112   115    1
    93   163   164    1
    94   163   160    1
    95   124   123    1
    96   120   118   ar
    97   120   121   ar
    98   118   116   ar
    99   156   154   ar
   100   156   157   ar
   101   147   148    1
   102   154   152   ar
   103    35    34    1
   104   194   193    2
   105   196   198    1
   106   196   195    1
   107   121   119   ar
   108    34    33    1
   109   192   191    1
   110   192   193    1
   111   192   195    1
   112   116   115    1
   113   116   117   ar
   114    28    27    2
   115   159   160    1
   116   159   149   am
   117   119   117   ar
   118   123   122    1
   119   123   126    1
   120   158   157    1
   121   160   161    1
   122   157   155   ar
   123   152   151    1
   124   152   153   ar
   125   151   148    1
   126   148   149    1
   127   161   162    2
   128    33    27   am
   129    27    26    1
   130   149   150    2
   131    30    32    1
   132    30    31    1
   133    30    29    1
   134   126   127    1
   135   155   153   ar
   136    29    26    1
   137    26    25    1
   138   127   128    1
   139    12    11    2
   140   189   187   ar
   141   189   190   ar
   142    20    19    2
   143    15    14    1
   144    16    14    1
   145    23    22    2
   146   187   185   ar
   147   129   128    2
   148    13    14    1
   149    13    10    1
   150    11    10    1
   151    11    17   am
   152   128   130   am
   153    18    19    1
   154    18    17    1
   155    18    21    1
   156   190   188   ar
   157    10     9    1
   158    22    21    1
   159    22    24   am
   160   165   166    1
   161   185   184    1
   162   185   186   ar
   163   184   181    1
   164   169   170    1
   165   169   166    1
   166   169   171    1
   167   188   186   ar
   168   166   167    1
   169   167   168    2
   170   182   181    1
   171   182   183    2
   172   181   180    1
   173     4     3    2
   174     6     7    1
   175     6     5    1
   176     2     3    1
   177     2     5    1
   178     2     1    1
   179     7     8    1
   180   178   176    1
   181   179   177    1
   182   175   174    2
   183   176   177    1
   184   176   173    1
   185   174   173    1
   186   173   172    1
