@<TRIPOS>MOLECULE
tmp/3bqmB00.pdb
 200 189 0 0 0
SMALL
GASTEIGER

@<TRIPOS>ATOM
      1  N          7.5910  -18.5230  -13.9320 N.3     3  VAL3       -0.1245
      2  CA         8.1200  -18.5810  -12.5750 C.3     3  VAL3        0.1561
      3  C          7.5540  -17.4040  -11.7570 C.2     3  VAL3        0.2260
      4  O          7.7750  -16.2410  -12.1030 O.2     3  VAL3       -0.2867
      5  CB         9.6690  -18.5150  -12.5440 C.3     3  VAL3        0.0252
      6  CG1       10.1750  -18.5970  -11.0890 C.3     3  VAL3        0.0019
      7  CG2       10.3120  -19.6090  -13.4040 C.3     3  VAL3        0.0019
      8  N          8.0570  -15.7510   -8.2870 N.3     5  LEU5       -0.1245
      9  CA         9.0710  -15.7480   -7.2550 C.3     5  LEU5        0.1561
     10  C          8.7690  -14.7420   -6.1470 C.2     5  LEU5        0.2260
     11  O          8.4140  -13.5990   -6.4120 O.2     5  LEU5       -0.2867
     12  CB        10.4620  -15.5180   -7.8750 C.3     5  LEU5        0.0270
     13  CG        11.7190  -15.6360   -7.0120 C.3     5  LEU5        0.0019
     14  CD1       12.8730  -16.1350   -7.8780 C.3     5  LEU5        0.0001
     15  CD2       12.0230  -14.2590   -6.4150 C.3     5  LEU5        0.0001
     16  N         10.4300  -12.8570   -2.8230 N.3     7  PHE7       -0.1241
     17  CA        11.5100  -12.5180   -1.9300 C.3     7  PHE7        0.1605
     18  C         10.9240  -12.3800   -0.5280 C.2     7  PHE7        0.2264
     19  O         10.0240  -11.5600   -0.2990 O.2     7  PHE7       -0.2867
     20  CB        12.1520  -11.1890   -2.3430 C.3     7  PHE7        0.0534
     21  CG        12.8080  -11.2060   -3.6950 C.ar    7  PHE7       -0.0203
     22  CD1       12.1930  -10.6120   -4.7850 C.ar    7  PHE7       -0.0042
     23  CD2       14.0680  -11.7880   -3.8660 C.ar    7  PHE7       -0.0042
     24  CE1       12.8170  -10.6020   -6.0550 C.ar    7  PHE7       -0.0003
     25  CE2       14.7100  -11.7750   -5.1260 C.ar    7  PHE7       -0.0003
     26  CZ        14.0920  -11.1870   -6.2100 C.ar    7  PHE7       -0.0000
     27  N         19.9480   -5.8360   -3.5000 N.3    26  PHE26      -0.1241
     28  CA        20.0840   -7.1850   -4.0600 C.3    26  PHE26       0.1605
     29  C         18.7880   -7.6270   -4.7550 C.2    26  PHE26       0.2264
     30  O         18.8160   -8.1180   -5.8990 O.2    26  PHE26      -0.2867
     31  CB        20.5160   -8.1760   -2.9630 C.3    26  PHE26       0.0534
     32  CG        20.6230   -9.6080   -3.4290 C.ar   26  PHE26      -0.0203
     33  CD1       21.6890  -10.0280   -4.2170 C.ar   26  PHE26      -0.0042
     34  CD2       19.6640  -10.5440   -3.0570 C.ar   26  PHE26      -0.0042
     35  CE1       21.7800  -11.3370   -4.6460 C.ar   26  PHE26      -0.0003
     36  CE2       19.7520  -11.8630   -3.4870 C.ar   26  PHE26      -0.0003
     37  CZ        20.8200  -12.2600   -4.2770 C.ar   26  PHE26      -0.0000
     38  N         18.2800   -8.1840   -8.8990 N.3    30  VAL30      -0.1245
     39  CA        17.7490   -9.4100   -9.4740 C.3    30  VAL30       0.1561
     40  C         16.5360   -9.1100  -10.3600 C.2    30  VAL30       0.2260
     41  O         16.4640   -9.5730  -11.4940 O.2    30  VAL30      -0.2867
     42  CB        17.3920  -10.4560   -8.4050 C.3    30  VAL30       0.0252
     43  CG1       16.6520  -11.6370   -9.0560 C.3    30  VAL30       0.0019
     44  CG2       18.6480  -10.9480   -7.6950 C.3    30  VAL30       0.0019
     45  N         16.0860   -9.6470  -14.6340 N.3    34  LEU34      -0.1245
     46  CA        15.0600  -10.5540  -15.1810 C.3    34  LEU34       0.1561
     47  C         13.7550   -9.8240  -15.5520 C.2    34  LEU34       0.2260
     48  O         12.6790  -10.4290  -15.6270 O.2    34  LEU34      -0.2867
     49  CB        14.7830  -11.7090  -14.1920 C.3    34  LEU34       0.0270
     50  CG        15.9880  -12.6030  -13.8100 C.3    34  LEU34       0.0019
     51  CD1       15.6740  -13.4590  -12.6120 C.3    34  LEU34       0.0001
     52  CD2       16.4150  -13.4980  -14.9620 C.3    34  LEU34       0.0001
     53  N          9.4420  -14.4120  -15.5310 N.3    39  TYR39      -0.1241
     54  CA         9.3930  -14.1480  -14.0830 C.3    39  TYR39       0.1605
     55  C          8.3930  -13.0520  -13.7130 C.2    39  TYR39       0.2264
     56  O          8.2680  -12.0170  -14.4010 O.2    39  TYR39      -0.2867
     57  CB        10.7820  -13.7780  -13.5350 C.3    39  TYR39       0.0534
     58  CG        11.7700  -14.9190  -13.4870 C.ar   39  TYR39      -0.0201
     59  CD1       12.3650  -15.4170  -14.6550 C.ar   39  TYR39      -0.0009
     60  CD2       12.1260  -15.4970  -12.2670 C.ar   39  TYR39      -0.0009
     61  CE1       13.2760  -16.4640  -14.6050 C.ar   39  TYR39       0.0417
     62  CE2       13.0280  -16.5390  -12.2050 C.ar   39  TYR39       0.0417
     63  CZ        13.5980  -17.0220  -13.3640 C.ar   39  TYR39       0.1957
     64  OH        14.4870  -18.0600  -13.2890 O.3    39  TYR39      -0.2866
     65  N          7.2370  -11.1980   -9.8430 N.3    41  PHE41      -0.1241
     66  CA         7.7830  -11.0580   -8.4820 C.3    41  PHE41       0.1605
     67  C          6.7820  -10.5320   -7.4530 C.2    41  PHE41       0.2264
     68  O          5.8280   -9.8390   -7.7920 O.2    41  PHE41      -0.2867
     69  CB         9.0370  -10.1600   -8.4900 C.3    41  PHE41       0.0534
     70  CG        10.1220  -10.6330   -9.4410 C.ar   41  PHE41      -0.0203
     71  CD1       10.1900  -10.1350  -10.7510 C.ar   41  PHE41      -0.0042
     72  CD2       11.0760  -11.5700   -9.0280 C.ar   41  PHE41      -0.0042
     73  CE1       11.1990  -10.5530  -11.6320 C.ar   41  PHE41      -0.0003
     74  CE2       12.0840  -12.0080   -9.9050 C.ar   41  PHE41      -0.0003
     75  CZ        12.1360  -11.4930  -11.2150 C.ar   41  PHE41      -0.0000
     76  N          5.8710  -22.2610  -11.8250 N.3   104  THR104     -0.1218
     77  CA         6.7410  -22.8480  -10.8070 C.3   104  THR104      0.1862
     78  C          6.8900  -21.7890   -9.7060 C.2   104  THR104      0.2287
     79  O          7.1500  -20.6190   -9.9890 O.2   104  THR104     -0.2866
     80  CB         8.1350  -23.2440  -11.3790 C.3   104  THR104      0.1770
     81  OG1        7.9780  -24.0660  -12.5490 O.3   104  THR104     -0.2211
     82  CG2        8.9510  -24.0380  -10.3480 C.3   104  THR104      0.0375
     83  N          8.7760  -20.1350   -6.5500 N.3   106  VAL106     -0.1245
     84  CA        10.1320  -20.0310   -6.0140 C.3   106  VAL106      0.1561
     85  C         10.1310  -19.0600   -4.8480 C.2   106  VAL106      0.2260
     86  O          9.5200  -17.9940   -4.9140 O.2   106  VAL106     -0.2867
     87  CB        11.1570  -19.5920   -7.1020 C.3   106  VAL106      0.0252
     88  CG1       12.5650  -19.4400   -6.5240 C.3   106  VAL106      0.0019
     89  CG2       11.1650  -20.5950   -8.2740 C.3   106  VAL106      0.0019
     90  N         12.7790  -17.0010   -2.2380 N.3   108  ILE108     -0.1245
     91  CA        14.1200  -16.5940   -1.8120 C.3   108  ILE108      0.1561
     92  C         14.0160  -15.9760   -0.4240 C.2   108  ILE108      0.2260
     93  O         13.4680  -14.8680   -0.2660 O.2   108  ILE108     -0.2867
     94  CB        14.7750  -15.5790   -2.7850 C.3   108  ILE108      0.0252
     95  CG1       14.7390  -16.0700   -4.2530 C.3   108  ILE108      0.0019
     96  CG2       16.1970  -15.2240   -2.3200 C.3   108  ILE108      0.0019
     97  CD1       15.5890  -17.3480   -4.5550 C.3   108  ILE108      0.0001
     98  N          9.7170  -24.1610   -4.3610 N.3   128  ILE128     -0.1245
     99  CA        11.1750  -24.3270   -4.4110 C.3   128  ILE128      0.1561
    100  C         11.7990  -23.2490   -3.5330 C.2   128  ILE128      0.2260
    101  O         11.6830  -22.0520   -3.8380 O.2   128  ILE128     -0.2867
    102  CB        11.7180  -24.2130   -5.8750 C.3   128  ILE128      0.0252
    103  CG1       11.0570  -25.2550   -6.7970 C.3   128  ILE128      0.0019
    104  CG2       13.2500  -24.3400   -5.9060 C.3   128  ILE128      0.0019
    105  CD1       11.5800  -25.2370   -8.2370 C.3   128  ILE128      0.0001
    106  N         14.8730  -21.3210   -1.5270 N.3   130  TYR130     -0.1227
    107  CA        16.2700  -20.9550   -1.3050 C.3   130  TYR130      0.1736
    108  C         16.3740  -20.1370   -0.0260 C.2   130  TYR130      0.2595
    109  O         15.4920  -19.3280    0.2780 O.2   130  TYR130     -0.2718
    110  CB        16.8340  -20.1290   -2.4760 C.3   130  TYR130      0.0548
    111  CG        16.9130  -20.8580   -3.7990 C.ar  130  TYR130     -0.0200
    112  CD1       15.8080  -20.9230   -4.6450 C.ar  130  TYR130     -0.0009
    113  CD2       18.0970  -21.4840   -4.2020 C.ar  130  TYR130     -0.0009
    114  CE1       15.8730  -21.5980   -5.8700 C.ar  130  TYR130      0.0417
    115  CE2       18.1780  -22.1600   -5.4320 C.ar  130  TYR130      0.0417
    116  CZ        17.0640  -22.2130   -6.2540 C.ar  130  TYR130      0.1957
    117  OH        17.1330  -22.8760   -7.4640 O.3   130  TYR130     -0.2866
    118  N         17.4510  -20.3380    0.7200 N.am  131  ILE131     -0.1966
    119  CA        17.7120  -19.4860    1.8920 C.3   131  ILE131      0.1727
    120  C         19.1330  -18.9150    1.8910 C.2   131  ILE131      0.2616
    121  O         20.1140  -19.6060    1.5950 O.2   131  ILE131     -0.2715
    122  CB        17.3430  -20.1970    3.2290 C.3   131  ILE131      0.0290
    123  CG1       17.3080  -19.1840    4.3950 C.3   131  ILE131      0.0022
    124  CG2       18.2650  -21.3870    3.4990 C.3   131  ILE131      0.0023
    125  CD1       16.4610  -19.6260    5.5510 C.3   131  ILE131      0.0001
    126  N         19.2110  -17.6240    2.1820 N.am  132  ILE132     -0.1977
    127  CA        20.4620  -16.9150    2.2940 C.3   132  ILE132      0.1596
    128  C         20.5680  -16.4410    3.7370 C.2   132  ILE132      0.2287
    129  O         19.8200  -15.5610    4.1680 O.2   132  ILE132     -0.2864
    130  CB        20.5240  -15.7010    1.3240 C.3   132  ILE132      0.0276
    131  CG1       20.2710  -16.1550   -0.1200 C.3   132  ILE132      0.0022
    132  CG2       21.8880  -14.9990    1.4100 C.3   132  ILE132      0.0022
    133  CD1       19.9710  -15.0300   -1.0830 C.3   132  ILE132      0.0001
    134  N         23.3020  -27.9960   -0.4110 N.3   156  SER156     -0.1202
    135  CA        24.4210  -27.5710   -1.2320 C.3   156  SER156      0.2020
    136  C         23.9440  -26.6790   -2.3640 C.2   156  SER156      0.2619
    137  O         24.6790  -25.8070   -2.8190 O.2   156  SER156     -0.2717
    138  CB        25.2210  -28.7730   -1.7780 C.3   156  SER156      0.2103
    139  OG        24.3790  -29.7840   -2.3260 O.3   156  SER156     -0.2182
    140  N         22.6920  -26.8800   -2.7770 N.am  157  GLU157     -0.1965
    141  CA        22.0720  -26.1120   -3.8570 C.3   157  GLU157      0.1733
    142  C         21.1950  -24.9720   -3.3220 C.2   157  GLU157      0.2616
    143  O         21.1410  -23.8840   -3.9000 O.2   157  GLU157     -0.2715
    144  CB        21.2340  -27.0520   -4.7420 C.3   157  GLU157      0.0429
    145  CG        20.4910  -26.3740   -5.9060 C.3   157  GLU157      0.1163
    146  CD        19.6190  -27.3380   -6.6980 C.2   157  GLU157      0.3649
    147  OE1       19.5090  -28.5320   -6.3230 O.co2 157  GLU157     -0.2457
    148  OE2       19.0090  -26.8810   -7.6890 O.co2 157  GLU157     -0.2457
    149  N         20.5150  -25.2160   -2.2110 N.am  158  PHE158     -0.1960
    150  CA        19.4690  -24.3030   -1.7690 C.3   158  PHE158      0.1771
    151  C         19.7960  -23.4350   -0.5460 C.2   158  PHE158      0.2619
    152  O         19.0740  -22.4760   -0.2600 O.2   158  PHE158     -0.2715
    153  CB        18.1610  -25.0780   -1.5700 C.3   158  PHE158      0.0574
    154  CG        17.6280  -25.6960   -2.8480 C.ar  158  PHE158     -0.0200
    155  CD1       17.7450  -27.0610   -3.0780 C.ar  158  PHE158     -0.0042
    156  CD2       17.0290  -24.9030   -3.8240 C.ar  158  PHE158     -0.0042
    157  CE1       17.2500  -27.6320   -4.2540 C.ar  158  PHE158     -0.0003
    158  CE2       16.5430  -25.4610   -5.0070 C.ar  158  PHE158     -0.0003
    159  CZ        16.6510  -26.8360   -5.2160 C.ar  158  PHE158     -0.0000
    160  N         20.8740  -23.7660    0.1600 N.am  159  VAL159     -0.1963
    161  CA        21.3150  -22.9640    1.3060 C.3   159  VAL159      0.1727
    162  C         22.6120  -22.2230    0.9950 C.2   159  VAL159      0.2616
    163  O         23.6020  -22.8520    0.5910 O.2   159  VAL159     -0.2715
    164  CB        21.5550  -23.8280    2.5630 C.3   159  VAL159      0.0290
    165  CG1       22.0960  -22.9600    3.7020 C.3   159  VAL159      0.0023
    166  CG2       20.2720  -24.5410    2.9730 C.3   159  VAL159      0.0023
    167  N         22.6090  -20.9070    1.2160 N.am  160  LYS160     -0.1977
    168  CA        23.7900  -20.0820    0.9700 C.3   160  LYS160      0.1596
    169  C         24.1560  -19.3230    2.2270 C.2   160  LYS160      0.2287
    170  O         23.3760  -18.4930    2.6870 O.2   160  LYS160     -0.2864
    171  CB        23.4840  -19.0540   -0.1190 C.3   160  LYS160      0.0298
    172  CG        24.4460  -19.0270   -1.2890 C.3   160  LYS160      0.0038
    173  CD        25.8620  -18.7220   -0.8940 C.3   160  LYS160      0.0206
    174  CE        26.7720  -18.8650   -2.1000 C.3   160  LYS160      0.1093
    175  NZ        26.8140  -20.2560   -2.6300 N.3   160  LYS160     -0.1314
    176  N         27.3410  -12.4600   -4.7130 N.3   171  LEU171     -0.1245
    177  CA        26.2790  -13.4210   -4.9950 C.3   171  LEU171      0.1561
    178  C         25.5030  -13.0440   -6.2570 C.2   171  LEU171      0.2260
    179  O         25.1880  -13.9140   -7.0680 O.2   171  LEU171     -0.2867
    180  CB        25.3450  -13.5820   -3.7960 C.3   171  LEU171      0.0270
    181  CG        24.2750  -14.6760   -3.8940 C.3   171  LEU171      0.0019
    182  CD1       24.8810  -16.0770   -4.0590 C.3   171  LEU171      0.0001
    183  CD2       23.3760  -14.6250   -2.6780 C.3   171  LEU171      0.0001
    184  N         25.2870  -15.1420   -9.5950 N.3   175  LEU175     -0.1245
    185  CA        23.9430  -15.4760  -10.0460 C.3   175  LEU175      0.1561
    186  C         23.7620  -15.2350  -11.5570 C.2   175  LEU175      0.2260
    187  O         23.1990  -16.0710  -12.2800 O.2   175  LEU175     -0.2867
    188  CB        22.9160  -14.6630   -9.2590 C.3   175  LEU175      0.0270
    189  CG        21.5230  -14.6410   -9.8620 C.3   175  LEU175      0.0019
    190  CD1       20.8340  -15.9980   -9.6790 C.3   175  LEU175      0.0001
    191  CD2       20.7360  -13.5150   -9.2390 C.3   175  LEU175      0.0001
    192  N         24.7140  -17.6850  -14.1610 N.3   178  LYS178     -0.1245
    193  CA        23.7920  -18.8220  -14.3030 C.3   178  LYS178      0.1561
    194  C         22.5540  -18.4780  -15.1510 C.2   178  LYS178      0.2260
    195  O         21.5930  -19.2550  -15.2160 O.2   178  LYS178     -0.2867
    196  CB        23.3910  -19.3620  -12.9210 C.3   178  LYS178      0.0271
    197  CG        24.4920  -20.1470  -12.1860 C.3   178  LYS178      0.0035
    198  CD        24.1500  -20.3820  -10.6970 C.3   178  LYS178      0.0206
    199  CE        23.0950  -21.4810  -10.5050 C.3   178  LYS178      0.1093
    200  NZ        22.3260  -21.3710   -9.2160 N.3   178  LYS178     -0.1314
@<TRIPOS>BOND
     1    48    47    2
     2    47    46    1
     3    53    54    1
     4   195   194    2
     5    46    45    1
     6    46    49    1
     7   194   193    1
     8    52    50    1
     9    59    61   ar
    10    59    58   ar
    11    61    63   ar
    12    56    55    2
    13   193   192    1
    14   193   196    1
    15    49    50    1
    16    54    55    1
    17    54    57    1
    18     1     2    1
    19    50    51    1
    20    57    58    1
    21    58    60   ar
    22     7     5    1
    23    63    64    1
    24    63    62   ar
    25   196   197    1
    26     2     5    1
    27     2     3    1
    28    81    80    1
    29     5     6    1
    30   187   186    2
    31    60    62   ar
    32   197   198    1
    33     4     3    2
    34    76    77    1
    35    73    75   ar
    36    73    71   ar
    37   186   185    1
    38    41    40    2
    39    80    77    1
    40    80    82    1
    41    75    74   ar
    42    77    78    1
    43    71    70   ar
    44   198   199    1
    45   199   200    1
    46    40    39    1
    47   185   184    1
    48   185   188    1
    49    79    78    2
    50    74    72   ar
    51   189   190    1
    52   189   188    1
    53   189   191    1
    54    65    66    1
    55    39    38    1
    56    39    42    1
    57    70    72   ar
    58    70    69    1
    59    43    42    1
    60    69    66    1
    61    66    67    1
    62    42    44    1
    63     8     9    1
    64    89    87    1
    65   105   103    1
    66    14    13    1
    67    12     9    1
    68    12    13    1
    69    68    67    2
    70   148   146   ar
    71   117   116    1
    72     9    10    1
    73    87    88    1
    74    87    84    1
    75   179   178    2
    76    13    15    1
    77   103   102    1
    78   146   147   ar
    79   146   145    1
    80    83    84    1
    81    11    10    2
    82   178   177    1
    83   116   114   ar
    84   116   115   ar
    85    26    24   ar
    86    26    25   ar
    87    24    22   ar
    88    84    85    1
    89   145   144    1
    90   104   102    1
    91    30    29    2
    92   102    99    1
    93   114   112   ar
    94   115   113   ar
    95   159   158   ar
    96   159   157   ar
    97    25    23   ar
    98   158   156   ar
    99   177   176    1
   100   177   180    1
   101    86    85    2
   102    22    21   ar
   103    29    28    1
   104   144   141    1
   105    35    37   ar
   106    35    33   ar
   107   112   111   ar
   108    97    95    1
   109    99    98    1
   110    99   100    1
   111    37    36   ar
   112   157   155   ar
   113    95    94    1
   114    33    32   ar
   115   113   111   ar
   116    28    27    1
   117    28    31    1
   118   182   181    1
   119   143   142    2
   120   181   180    1
   121   181   183    1
   122    23    21   ar
   123   141   142    1
   124   141   140    1
   125   101   100    2
   126   156   154   ar
   127   111   110    1
   128    21    20    1
   129    36    34   ar
   130    32    34   ar
   131    32    31    1
   132   142   149   am
   133   155   154   ar
   134   154   153    1
   135    16    17    1
   136   137   136    2
   137    94    96    1
   138    94    91    1
   139   140   136   am
   140   175   174    1
   141   110   107    1
   142   136   135    1
   143    20    17    1
   144   139   138    1
   145    90    91    1
   146   149   150    1
   147   174   173    1
   148    17    18    1
   149    91    92    1
   150   138   135    1
   151   150   153    1
   152   150   151    1
   153   106   107    1
   154   107   108    1
   155   172   173    1
   156   172   171    1
   157   135   134    1
   158   133   131    1
   159   151   152    2
   160   151   160   am
   161    18    19    2
   162    92    93    2
   163   131   130    1
   164   171   168    1
   165   108   109    2
   166   108   118   am
   167   160   161    1
   168   163   162    2
   169   118   119    1
   170   168   167    1
   171   168   169    1
   172   162   167   am
   173   162   161    1
   174   161   164    1
   175   130   132    1
   176   130   127    1
   177   121   120    2
   178   120   119    1
   179   120   126   am
   180   119   122    1
   181   126   127    1
   182   169   170    2
   183   127   128    1
   184   164   166    1
   185   164   165    1
   186   122   124    1
   187   122   123    1
   188   128   129    2
   189   123   125    1
