@<TRIPOS>MOLECULE
tmp/3bqnB00.pdb
 203 192 0 0 0
SMALL
GASTEIGER

@<TRIPOS>ATOM
      1  N        -29.2790   18.4070  -22.3070 N.3     3  VAL3       -0.1245
      2  CA       -28.7400   18.4760  -23.6610 C.3     3  VAL3        0.1561
      3  C        -29.2990   17.3170  -24.4970 C.2     3  VAL3        0.2260
      4  O        -29.1130   16.1470  -24.1470 O.2     3  VAL3       -0.2867
      5  CB       -27.1890   18.4570  -23.6660 C.3     3  VAL3        0.0252
      6  CG1      -26.6530   18.5300  -25.1030 C.3     3  VAL3        0.0019
      7  CG2      -26.6210   19.5960  -22.8150 C.3     3  VAL3        0.0019
      8  N        -28.7760   15.6240  -27.9440 N.3     5  LEU5       -0.1245
      9  CA       -27.7220   15.6110  -28.9440 C.3     5  LEU5        0.1561
     10  C        -28.0150   14.6010  -30.0410 C.2     5  LEU5        0.2260
     11  O        -28.3020   13.4410  -29.7560 O.2     5  LEU5       -0.2867
     12  CB       -26.3690   15.3140  -28.2790 C.3     5  LEU5        0.0270
     13  CG       -25.1030   15.4830  -29.1290 C.3     5  LEU5        0.0019
     14  CD1      -23.9320   15.9310  -28.2710 C.3     5  LEU5        0.0001
     15  CD2      -24.7730   14.1740  -29.8590 C.3     5  LEU5        0.0001
     16  N        -26.4170   12.6780  -33.4060 N.3     7  PHE7       -0.1241
     17  CA       -25.3420   12.3140  -34.3270 C.3     7  PHE7        0.1605
     18  C        -25.9290   12.1580  -35.7260 C.2     7  PHE7        0.2264
     19  O        -26.8090   11.3140  -35.9540 O.2     7  PHE7       -0.2867
     20  CB       -24.6720   10.9870  -33.9230 C.3     7  PHE7        0.0534
     21  CG       -23.9670   11.0350  -32.5990 C.ar    7  PHE7       -0.0203
     22  CD1      -24.5720   10.5190  -31.4620 C.ar    7  PHE7       -0.0042
     23  CD2      -22.6970   11.6090  -32.4870 C.ar    7  PHE7       -0.0042
     24  CE1      -23.9200   10.5570  -30.2250 C.ar    7  PHE7       -0.0003
     25  CE2      -22.0380   11.6550  -31.2470 C.ar    7  PHE7       -0.0003
     26  CZ       -22.6510   11.1260  -30.1230 C.ar    7  PHE7       -0.0000
     27  N        -16.8500    5.8770  -32.7540 N.3    26  PHE26      -0.1241
     28  CA       -16.7230    7.2180  -32.1680 C.3    26  PHE26       0.1605
     29  C        -18.0210    7.6240  -31.4680 C.2    26  PHE26       0.2264
     30  O        -18.0100    8.0900  -30.3200 O.2    26  PHE26      -0.2867
     31  CB       -16.3330    8.2450  -33.2440 C.3    26  PHE26       0.0534
     32  CG       -16.2920    9.6740  -32.7500 C.ar   26  PHE26      -0.0203
     33  CD1      -15.1840   10.1530  -32.0460 C.ar   26  PHE26      -0.0042
     34  CD2      -17.3530   10.5490  -33.0040 C.ar   26  PHE26      -0.0042
     35  CE1      -15.1380   11.4670  -31.5900 C.ar   26  PHE26      -0.0003
     36  CE2      -17.3200   11.8690  -32.5470 C.ar   26  PHE26      -0.0003
     37  CZ       -16.1990   12.3300  -31.8400 C.ar   26  PHE26      -0.0000
     38  N        -18.5280    8.1390  -27.3150 N.3    30  VAL30      -0.1245
     39  CA       -19.0580    9.3700  -26.7300 C.3    30  VAL30       0.1561
     40  C        -20.2680    9.0510  -25.8390 C.2    30  VAL30       0.2260
     41  O        -20.3540    9.5110  -24.7010 O.2    30  VAL30      -0.2867
     42  CB       -19.4330   10.4080  -27.8200 C.3    30  VAL30       0.0252
     43  CG1      -20.2690   11.5420  -27.2290 C.3    30  VAL30       0.0019
     44  CG2      -18.1770   10.9600  -28.4930 C.3    30  VAL30       0.0019
     45  N        -20.6850    9.5180  -21.6810 N.3    34  LEU34      -0.1245
     46  CA       -21.6990   10.4430  -21.1560 C.3    34  LEU34       0.1561
     47  C        -22.9960    9.7470  -20.7290 C.2    34  LEU34       0.2260
     48  O        -24.0660   10.3640  -20.6950 O.2    34  LEU34      -0.2867
     49  CB       -21.9750   11.5750  -22.1600 C.3    34  LEU34       0.0270
     50  CG       -20.8120   12.5250  -22.4800 C.3    34  LEU34       0.0019
     51  CD1      -21.1720   13.4230  -23.6540 C.3    34  LEU34       0.0001
     52  CD2      -20.4030   13.3710  -21.2680 C.3    34  LEU34       0.0001
     53  N        -27.4010   14.3410  -20.7040 N.3    39  TYR39      -0.1241
     54  CA       -27.4240   14.1060  -22.1480 C.3    39  TYR39       0.1605
     55  C        -28.3710   12.9770  -22.5180 C.2    39  TYR39       0.2264
     56  O        -28.4740   11.9690  -21.8090 O.2    39  TYR39      -0.2867
     57  CB       -26.0280   13.7420  -22.6730 C.3    39  TYR39       0.0534
     58  CG       -25.0380   14.8690  -22.7260 C.ar   39  TYR39      -0.0201
     59  CD1      -24.3700   15.2910  -21.5750 C.ar   39  TYR39      -0.0009
     60  CD2      -24.7340   15.4960  -23.9360 C.ar   39  TYR39      -0.0009
     61  CE1      -23.4410   16.3250  -21.6210 C.ar   39  TYR39       0.0417
     62  CE2      -23.8040   16.5310  -23.9930 C.ar   39  TYR39       0.0417
     63  CZ       -23.1600   16.9380  -22.8320 C.ar   39  TYR39       0.1957
     64  OH       -22.2400   17.9600  -22.8650 O.3    39  TYR39      -0.2866
     65  N        -29.5350   11.0940  -26.4280 N.3    41  PHE41      -0.1241
     66  CA       -28.9910   10.9490  -27.7880 C.3    41  PHE41       0.1605
     67  C        -29.9710   10.3730  -28.8150 C.2    41  PHE41       0.2264
     68  O        -30.8340    9.5590  -28.4830 O.2    41  PHE41      -0.2867
     69  CB       -27.7420   10.0550  -27.7720 C.3    41  PHE41       0.0534
     70  CG       -26.6680   10.5390  -26.8490 C.ar   41  PHE41      -0.0203
     71  CD1      -26.5830   10.0600  -25.5410 C.ar   41  PHE41      -0.0042
     72  CD2      -25.7530   11.5020  -27.2780 C.ar   41  PHE41      -0.0042
     73  CE1      -25.5870   10.5200  -24.6700 C.ar   41  PHE41      -0.0003
     74  CE2      -24.7550   11.9630  -26.4230 C.ar   41  PHE41      -0.0003
     75  CZ       -24.6770   11.4810  -25.1140 C.ar   41  PHE41      -0.0000
     76  N        -30.9970   22.1270  -24.4540 N.3   104  THR104     -0.1218
     77  CA       -30.1160   22.6830  -25.4630 C.3   104  THR104      0.1862
     78  C        -29.9640   21.6260  -26.5520 C.2   104  THR104      0.2287
     79  O        -29.6550   20.4670  -26.2600 O.2   104  THR104     -0.2866
     80  CB       -28.7380   23.0300  -24.8560 C.3   104  THR104      0.1770
     81  OG1      -28.9100   24.0060  -23.8170 O.3   104  THR104     -0.2211
     82  CG2      -27.7910   23.5790  -25.9160 C.3   104  THR104      0.0375
     83  N        -28.0860   20.0150  -29.6690 N.3   106  VAL106     -0.1245
     84  CA       -26.7560   19.9100  -30.2640 C.3   106  VAL106      0.1561
     85  C        -26.7720   18.9020  -31.4150 C.2   106  VAL106      0.2260
     86  O        -27.3580   17.8180  -31.3100 O.2   106  VAL106     -0.2867
     87  CB       -25.6730   19.5170  -29.2100 C.3   106  VAL106      0.0252
     88  CG1      -24.2870   19.3490  -29.8560 C.3   106  VAL106      0.0019
     89  CG2      -25.6140   20.5410  -28.0890 C.3   106  VAL106      0.0019
     90  N        -24.1290   16.8980  -34.0590 N.3   108  ILE108     -0.1245
     91  CA       -22.7730   16.5100  -34.4470 C.3   108  ILE108      0.1561
     92  C        -22.8570   15.8710  -35.8330 C.2   108  ILE108      0.2260
     93  O        -23.3800   14.7600  -35.9840 O.2   108  ILE108     -0.2867
     94  CB       -22.1270   15.5150  -33.4370 C.3   108  ILE108      0.0252
     95  CG1      -22.2210   16.0310  -31.9940 C.3   108  ILE108      0.0019
     96  CG2      -20.6660   15.2140  -33.8140 C.3   108  ILE108      0.0019
     97  CD1      -21.5510   17.3930  -31.7470 C.3   108  ILE108      0.0001
     98  N        -27.1590   24.0700  -31.9140 N.3   128  ILE128     -0.1245
     99  CA       -25.7020   24.2110  -31.8880 C.3   128  ILE128      0.1561
    100  C        -25.1230   23.1030  -32.7680 C.2   128  ILE128      0.2260
    101  O        -25.3530   21.9190  -32.5040 O.2   128  ILE128     -0.2867
    102  CB       -25.1490   24.1100  -30.4460 C.3   128  ILE128      0.0252
    103  CG1      -25.7770   25.1910  -29.5520 C.3   128  ILE128      0.0019
    104  CG2      -23.6280   24.2240  -30.4410 C.3   128  ILE128      0.0019
    105  CD1      -25.2870   25.1720  -28.1180 C.3   128  ILE128      0.0001
    106  N        -21.9900   21.1920  -34.7770 N.3   130  TYR130     -0.1227
    107  CA       -20.5970   20.8370  -35.0170 C.3   130  TYR130      0.1736
    108  C        -20.5110   20.0070  -36.2870 C.2   130  TYR130      0.2595
    109  O        -21.4150   19.2190  -36.5970 O.2   130  TYR130     -0.2718
    110  CB       -20.0210   20.0170  -33.8570 C.3   130  TYR130      0.0548
    111  CG       -19.8880   20.7460  -32.5460 C.ar  130  TYR130     -0.0200
    112  CD1      -20.9590   20.8140  -31.6550 C.ar  130  TYR130     -0.0009
    113  CD2      -18.6840   21.3570  -32.1830 C.ar  130  TYR130     -0.0009
    114  CE1      -20.8450   21.4820  -30.4430 C.ar  130  TYR130      0.0417
    115  CE2      -18.5550   22.0270  -30.9570 C.ar  130  TYR130      0.0417
    116  CZ       -19.6400   22.0810  -30.1000 C.ar  130  TYR130      0.1957
    117  OH       -19.5430   22.7270  -28.8900 O.3   130  TYR130     -0.2866
    118  N        -19.4300   20.1850  -37.0320 N.am  131  ILE131     -0.1966
    119  CA       -19.1950   19.3240  -38.1890 C.3   131  ILE131      0.1727
    120  C        -17.7770   18.7590  -38.1640 C.2   131  ILE131      0.2616
    121  O        -16.8110   19.4770  -37.8750 O.2   131  ILE131     -0.2715
    122  CB       -19.5590   20.0110  -39.5380 C.3   131  ILE131      0.0290
    123  CG1      -19.5940   18.9740  -40.6750 C.3   131  ILE131      0.0022
    124  CG2      -18.6230   21.1980  -39.8400 C.3   131  ILE131      0.0023
    125  CD1      -20.3860   19.4110  -41.9010 C.3   131  ILE131      0.0001
    126  N        -17.6850   17.4580  -38.4250 N.am  132  ILE132     -0.1977
    127  CA       -16.4160   16.7530  -38.5080 C.3   132  ILE132      0.1596
    128  C        -16.2640   16.2990  -39.9560 C.2   132  ILE132      0.2287
    129  O        -17.0220   15.4430  -40.4320 O.2   132  ILE132     -0.2864
    130  CB       -16.3780   15.5310  -37.5420 C.3   132  ILE132      0.0276
    131  CG1      -16.6230   15.9810  -36.1000 C.3   132  ILE132      0.0022
    132  CG2      -15.0490   14.7840  -37.6500 C.3   132  ILE132      0.0022
    133  CD1      -16.8950   14.8330  -35.1260 C.3   132  ILE132      0.0001
    134  N        -14.1280   26.7900  -33.5940 N.3   157  GLU157     -0.1231
    135  CA       -14.7300   25.9870  -32.5310 C.3   157  GLU157      0.1699
    136  C        -15.5900   24.8300  -33.0650 C.2   157  GLU157      0.2592
    137  O        -15.5450   23.7260  -32.5230 O.2   157  GLU157     -0.2718
    138  CB       -15.5820   26.8760  -31.6120 C.3   157  GLU157      0.0402
    139  CG       -16.2530   26.1180  -30.4580 C.3   157  GLU157      0.1161
    140  CD       -17.0640   27.0080  -29.5230 C.2   157  GLU157      0.3649
    141  OE1      -17.1880   28.2290  -29.7750 O.co2 157  GLU157     -0.2457
    142  OE2      -17.5860   26.4680  -28.5220 O.co2 157  GLU157     -0.2457
    143  N        -16.3670   25.0820  -34.1170 N.am  158  PHE158     -0.1962
    144  CA       -17.4090   24.1290  -34.5370 C.3   158  PHE158      0.1771
    145  C        -17.0930   23.2490  -35.7490 C.2   158  PHE158      0.2619
    146  O        -17.8130   22.2730  -36.0090 O.2   158  PHE158     -0.2715
    147  CB       -18.7590   24.8420  -34.7140 C.3   158  PHE158      0.0574
    148  CG       -19.2560   25.4920  -33.4520 C.ar  158  PHE158     -0.0200
    149  CD1      -19.0610   26.8490  -33.2290 C.ar  158  PHE158     -0.0042
    150  CD2      -19.8790   24.7340  -32.4660 C.ar  158  PHE158     -0.0042
    151  CE1      -19.5100   27.4470  -32.0460 C.ar  158  PHE158     -0.0003
    152  CE2      -20.3220   25.3200  -31.2840 C.ar  158  PHE158     -0.0003
    153  CZ       -20.1430   26.6810  -31.0790 C.ar  158  PHE158     -0.0000
    154  N        -16.0320   23.5880  -36.4780 N.am  159  VAL159     -0.1963
    155  CA       -15.6100   22.8040  -37.6470 C.3   159  VAL159      0.1727
    156  C        -14.3000   22.0960  -37.3380 C.2   159  VAL159      0.2616
    157  O        -13.3000   22.7520  -37.0180 O.2   159  VAL159     -0.2715
    158  CB       -15.4330   23.7030  -38.9120 C.3   159  VAL159      0.0290
    159  CG1      -14.8430   22.9120  -40.0840 C.3   159  VAL159      0.0023
    160  CG2      -16.7540   24.3370  -39.3050 C.3   159  VAL159      0.0023
    161  N        -14.3020   20.7650  -37.4280 N.am  160  LYS160     -0.1977
    162  CA       -13.0740   19.9900  -37.2330 C.3   160  LYS160      0.1596
    163  C        -12.7320   19.2110  -38.4930 C.2   160  LYS160      0.2287
    164  O        -13.5250   18.3940  -38.9520 O.2   160  LYS160     -0.2864
    165  CB       -13.2100   19.0310  -36.0430 C.3   160  LYS160      0.0298
    166  CG       -11.9040   18.3370  -35.6360 C.3   160  LYS160      0.0038
    167  CD       -11.1580   19.1440  -34.5790 C.3   160  LYS160      0.0206
    168  CE        -9.6790   18.7710  -34.5130 C.3   160  LYS160      0.1093
    169  NZ        -9.4480   17.3510  -34.0940 N.3   160  LYS160     -0.1314
    170  N         -9.4990   12.5190  -31.5730 N.3   171  LEU171     -0.1245
    171  CA       -10.5850   13.4520  -31.2820 C.3   171  LEU171      0.1561
    172  C        -11.3300   13.0590  -30.0090 C.2   171  LEU171      0.2260
    173  O        -11.6760   13.9250  -29.2020 O.2   171  LEU171     -0.2867
    174  CB       -11.5580   13.5570  -32.4640 C.3   171  LEU171      0.0270
    175  CG       -12.6090   14.6680  -32.3670 C.3   171  LEU171      0.0019
    176  CD1      -11.9620   16.0490  -32.2190 C.3   171  LEU171      0.0001
    177  CD2      -13.5330   14.6430  -33.5790 C.3   171  LEU171      0.0001
    178  N         -9.0930   13.8620  -27.0670 N.3   174  GLU174     -0.1231
    179  CA        -9.1080   15.3150  -26.8420 C.3   174  GLU174      0.1699
    180  C        -10.3950   15.7840  -26.1820 C.2   174  GLU174      0.2592
    181  O        -10.3690   16.6230  -25.2770 O.2   174  GLU174     -0.2718
    182  CB        -8.9340   16.0690  -28.1590 C.3   174  GLU174      0.0402
    183  CG        -7.5460   16.0170  -28.7480 C.3   174  GLU174      0.1161
    184  CD        -7.4820   16.6540  -30.1240 C.2   174  GLU174      0.3649
    185  OE1       -8.3820   16.3890  -30.9570 O.co2 174  GLU174     -0.2457
    186  OE2       -6.5240   17.4180  -30.3780 O.co2 174  GLU174     -0.2457
    187  N        -11.5220   15.2420  -26.6340 N.am  175  LEU175     -0.1980
    188  CA       -12.8170   15.7150  -26.1580 C.3   175  LEU175      0.1596
    189  C        -13.0540   15.3400  -24.6890 C.2   175  LEU175      0.2287
    190  O        -13.6940   16.0850  -23.9430 O.2   175  LEU175     -0.2864
    191  CB       -13.9440   15.2340  -27.0780 C.3   175  LEU175      0.0297
    192  CG       -14.6090   13.8720  -26.9590 C.3   175  LEU175      0.0022
    193  CD1      -15.8180   13.9680  -26.0490 C.3   175  LEU175      0.0001
    194  CD2      -15.0410   13.4070  -28.3380 C.3   175  LEU175      0.0001
    195  N        -12.0970   17.7120  -22.0810 N.3   178  LYS178     -0.1245
    196  CA       -13.0000   18.8490  -21.9500 C.3   178  LYS178      0.1561
    197  C        -14.2330   18.5150  -21.1020 C.2   178  LYS178      0.2260
    198  O        -15.1740   19.3080  -21.0270 O.2   178  LYS178     -0.2867
    199  CB       -13.4100   19.3440  -23.3400 C.3   178  LYS178      0.0271
    200  CG       -12.2670   19.9960  -24.1100 C.3   178  LYS178      0.0035
    201  CD       -12.5860   20.1540  -25.5900 C.3   178  LYS178      0.0206
    202  CE       -13.9060   20.8770  -25.8070 C.3   178  LYS178      0.1093
    203  NZ       -13.8870   21.7290  -27.0210 N.3   178  LYS178     -0.1314
@<TRIPOS>BOND
     1   125   123    1
     2   123   122    1
     3   129   128    2
     4   159   158    1
     5   128   127    1
     6   124   122    1
     7   122   119    1
     8   160   158    1
     9   164   163    2
    10   158   155    1
    11   127   126    1
    12   127   130    1
    13   163   162    1
    14   126   120   am
    15   119   120    1
    16   119   118    1
    17   120   121    2
    18   132   130    1
    19   155   156    1
    20   155   154    1
    21   130   131    1
    22   161   156   am
    23   161   162    1
    24   156   157    2
    25   162   165    1
    26   118   108   am
    27   109   108    2
    28   154   145   am
    29   108   107    1
    30   131   133    1
    31   165   166    1
    32   146   145    2
    33    93    92    2
    34    19    18    2
    35    92    91    1
    36   145   144    1
    37    18    17    1
    38   166   167    1
    39   107   106    1
    40   107   110    1
    41   147   144    1
    42   147   148    1
    43   167   168    1
    44   144   143    1
    45   168   169    1
    46    91    90    1
    47    91    94    1
    48    17    20    1
    49    17    16    1
    50   143   136   am
    51    20    21    1
    52   110   111    1
    53    96    94    1
    54   134   135    1
    55   177   175    1
    56   148   149   ar
    57   148   150   ar
    58    94    95    1
    59    31    32    1
    60    31    28    1
    61   149   151   ar
    62   136   135    1
    63   136   137    2
    64    34    32   ar
    65    34    36   ar
    66   100   101    2
    67   100    99    1
    68    27    28    1
    69    32    33   ar
    70    21    23   ar
    71    21    22   ar
    72    36    37   ar
    73   111   113   ar
    74   111   112   ar
    75   135   138    1
    76    23    25   ar
    77   150   152   ar
    78   174   175    1
    79   174   171    1
    80   175   176    1
    81   113   115   ar
    82    28    29    1
    83    33    35   ar
    84   151   153   ar
    85    95    97    1
    86    98    99    1
    87    99   102    1
    88    37    35   ar
    89   112   114   ar
    90   138   139    1
    91   170   171    1
    92    29    30    2
    93    22    24   ar
    94    85    86    2
    95    85    84    1
    96   152   153   ar
    97   171   172    1
    98    25    26   ar
    99   115   116   ar
   100   185   184   ar
   101   139   140    1
   102   102   104    1
   103   102   103    1
   104   114   116   ar
   105   186   184   ar
   106    84    83    1
   107    84    87    1
   108    24    26   ar
   109   184   183    1
   110   116   117    1
   111    10    11    2
   112    10     9    1
   113   172   173    2
   114    15    13    1
   115    88    87    1
   116   141   140   ar
   117   103   105    1
   118   140   142   ar
   119    87    89    1
   120    13    12    1
   121    13    14    1
   122     9    12    1
   123     9     8    1
   124    67    68    2
   125    67    66    1
   126   183   182    1
   127    44    42    1
   128   194   192    1
   129   182   179    1
   130    42    43    1
   131    42    39    1
   132    66    69    1
   133    66    65    1
   134    69    70    1
   135    38    39    1
   136    72    70   ar
   137    72    74   ar
   138   191   192    1
   139   191   188    1
   140   178   179    1
   141   203   202    1
   142   192   193    1
   143    70    71   ar
   144   179   180    1
   145    39    40    1
   146   187   180   am
   147   187   188    1
   148    78    79    2
   149    78    77    1
   150    74    75   ar
   151   180   181    2
   152   188   189    1
   153    82    80    1
   154    40    41    2
   155   202   201    1
   156   201   200    1
   157    71    73   ar
   158    77    80    1
   159    77    76    1
   160    75    73   ar
   161     6     5    1
   162    80    81    1
   163   189   190    2
   164     3     4    2
   165     3     2    1
   166   200   199    1
   167    62    60   ar
   168    62    63   ar
   169    60    58   ar
   170     5     2    1
   171     5     7    1
   172     2     1    1
   173    51    50    1
   174   199   196    1
   175    64    63    1
   176    63    61   ar
   177    58    57    1
   178    58    59   ar
   179    57    54    1
   180    55    54    1
   181    55    56    2
   182    50    49    1
   183    50    52    1
   184    49    46    1
   185    54    53    1
   186   195   196    1
   187   196   197    1
   188    45    46    1
   189    61    59   ar
   190    46    47    1
   191   197   198    2
   192    47    48    2
