@<TRIPOS>MOLECULE
tmp/3bqrA00.pdb
 158 147 0 0 0
SMALL
GASTEIGER

@<TRIPOS>ATOM
      1  N          0.7340   43.5150   43.2080 N.3    13  LEU13      -0.1231
      2  CA         1.0060   42.4240   42.2700 C.3    13  LEU13       0.1693
      3  C          2.4370   41.9330   42.4610 C.2    13  LEU13       0.2593
      4  O          2.7300   40.7450   42.3340 O.2    13  LEU13      -0.2718
      5  CB         0.7430   42.8710   40.8220 C.3    13  LEU13       0.0284
      6  CG        -0.7170   43.1440   40.5250 C.3    13  LEU13       0.0019
      7  CD1       -0.8580   43.8130   39.1310 C.3    13  LEU13       0.0001
      8  CD2       -1.6180   41.9130   40.6680 C.3    13  LEU13       0.0001
      9  N          3.3440   42.8530   42.7570 N.am   14  GLY14      -0.1942
     10  CA         4.6970   42.5030   43.0380 C.3    14  GLY14       0.2014
     11  C          5.5590   43.7070   43.3630 C.2    14  GLY14       0.2639
     12  O          5.1080   44.8340   43.3000 O.2    14  GLY14      -0.2714
     13  N          6.8140   43.4580   43.7060 N.am   15  SER15      -0.1949
     14  CA         7.6970   44.5160   44.1620 C.3    15  SER15       0.1924
     15  C          9.1320   44.2290   43.7540 C.2    15  SER15       0.2314
     16  O          9.5510   43.0700   43.6970 O.2    15  SER15      -0.2863
     17  CB         7.6760   44.6180   45.7070 C.3    15  SER15       0.2116
     18  OG         6.4740   45.1680   46.1860 O.3    15  SER15      -0.2180
     19  N          4.3090   47.3010   42.0100 N.3    21  VAL21      -0.1245
     20  CA         3.2420   47.2320   40.9990 C.3    21  VAL21       0.1561
     21  C          1.9630   46.8500   41.7130 C.2    21  VAL21       0.2260
     22  O          1.9460   45.8490   42.4380 O.2    21  VAL21      -0.2867
     23  CB         3.5450   46.2240   39.9200 C.3    21  VAL21       0.0252
     24  CG1        2.4100   46.1520   38.8900 C.3    21  VAL21       0.0019
     25  CG2        4.9310   46.5270   39.2390 C.3    21  VAL21       0.0019
     26  N         -2.2320   47.8490   35.3470 N.3    34  ALA34      -0.1245
     27  CA        -1.1490   47.6370   36.3050 C.3    34  ALA34       0.1562
     28  C         -0.5340   48.9960   36.5690 C.2    34  ALA34       0.2260
     29  O         -0.1960   49.7170   35.6400 O.2    34  ALA34      -0.2867
     30  CB        -0.0650   46.6720   35.7530 C.3    34  ALA34       0.0290
     31  N          2.5920   50.8420   38.0900 N.3    36  LYS36      -0.1245
     32  CA         3.9870   50.7400   38.5680 C.3    36  LYS36       0.1561
     33  C          4.4370   52.0220   39.2660 C.2    36  LYS36       0.2260
     34  O          4.5850   53.0590   38.6270 O.2    36  LYS36      -0.2867
     35  CB         4.9160   50.4210   37.4290 C.3    36  LYS36       0.0271
     36  CG         6.3720   50.2010   37.8210 C.3    36  LYS36       0.0035
     37  CD         7.1660   49.9850   36.4860 C.3    36  LYS36       0.0206
     38  CE         8.5840   49.6230   36.7350 C.3    36  LYS36       0.1093
     39  NZ         9.3700   49.4600   35.4910 N.3    36  LYS36      -0.1314
     40  N         13.1120   55.7760   30.9110 N.3    58  GLU58      -0.1245
     41  CA        12.1620   54.6610   30.7700 C.3    58  GLU58       0.1567
     42  C         10.8430   55.1310   30.1520 C.2    58  GLU58       0.2260
     43  O         10.2750   54.4740   29.2400 O.2    58  GLU58      -0.2867
     44  CB        11.9410   53.9660   32.1590 C.3    58  GLU58       0.0388
     45  CG        10.8140   52.9880   32.2400 C.3    58  GLU58       0.1160
     46  CD        10.7160   52.2340   33.5900 C.2    58  GLU58       0.3649
     47  OE1       11.4830   52.5640   34.5400 O.co2  58  GLU58      -0.2457
     48  OE2        9.8760   51.3010   33.6630 O.co2  58  GLU58      -0.2457
     49  N          9.0520   54.0250   26.6710 N.3    62  LEU62      -0.1245
     50  CA         7.7100   53.4350   26.6470 C.3    62  LEU62       0.1561
     51  C          6.7600   54.2250   25.7610 C.2    62  LEU62       0.2260
     52  O          5.8850   53.6850   25.0550 O.2    62  LEU62      -0.2867
     53  CB         7.1390   53.3610   28.0600 C.3    62  LEU62       0.0270
     54  CG         7.6960   52.2800   28.9990 C.3    62  LEU62       0.0019
     55  CD1        7.2750   52.5840   30.4370 C.3    62  LEU62       0.0001
     56  CD2        7.2340   50.8880   28.5420 C.3    62  LEU62       0.0001
     57  N          4.8000   45.7780   25.8700 N.3    71  ILE71      -0.1245
     58  CA         3.8460   46.3670   26.8180 C.3    71  ILE71       0.1561
     59  C          3.4640   47.7850   26.4290 C.2    71  ILE71       0.2260
     60  O          4.3110   48.5360   25.9780 O.2    71  ILE71      -0.2867
     61  CB         4.3720   46.3550   28.2770 C.3    71  ILE71       0.0252
     62  CG1        3.2310   46.4640   29.2760 C.3    71  ILE71       0.0019
     63  CG2        5.4870   47.3820   28.5190 C.3    71  ILE71       0.0019
     64  CD1        2.3530   45.2020   29.3530 C.3    71  ILE71       0.0001
     65  N          3.4400   54.7590   36.6090 N.3    85  LEU85      -0.1245
     66  CA         3.1700   54.3670   35.2610 C.3    85  LEU85       0.1561
     67  C          1.9370   53.4750   35.2370 C.2    85  LEU85       0.2260
     68  O          1.8820   52.4480   35.9340 O.2    85  LEU85      -0.2867
     69  CB         4.3570   53.6220   34.6480 C.3    85  LEU85       0.0270
     70  CG         5.5640   54.4400   34.2110 C.3    85  LEU85       0.0019
     71  CD1        5.9090   55.5100   35.1450 C.3    85  LEU85       0.0001
     72  CD2        6.7000   53.4920   33.9790 C.3    85  LEU85       0.0001
     73  N          0.0590   50.9330   33.1800 N.3    87  LEU87      -0.1231
     74  CA         0.3810   50.0080   32.1020 C.3    87  LEU87       0.1693
     75  C         -0.7620   49.0460   31.8420 C.2    87  LEU87       0.2592
     76  O         -1.5190   48.7060   32.7480 O.2    87  LEU87      -0.2718
     77  CB         1.6430   49.2180   32.4940 C.3    87  LEU87       0.0284
     78  CG         2.9050   50.0850   32.5690 C.3    87  LEU87       0.0019
     79  CD1        3.7380   49.6550   33.7750 C.3    87  LEU87       0.0001
     80  CD2        3.6670   50.0280   31.2020 C.3    87  LEU87       0.0001
     81  N         -0.8660   48.6060   30.5890 N.am   88  GLU88      -0.1966
     82  CA        -1.7090   47.4910   30.1690 C.3    88  GLU88       0.1733
     83  C         -1.6190   46.3340   31.1680 C.2    88  GLU88       0.2616
     84  O         -0.5050   45.9020   31.5100 O.2    88  GLU88      -0.2715
     85  CB        -1.1310   47.0260   28.8240 C.3    88  GLU88       0.0429
     86  CG        -1.6100   45.7700   28.2670 C.3    88  GLU88       0.1163
     87  CD        -1.0530   45.5200   26.8830 C.2    88  GLU88       0.3649
     88  OE1        0.0670   46.0310   26.5000 O.co2  88  GLU88      -0.2457
     89  OE2       -1.7350   44.7680   26.1880 O.co2  88  GLU88      -0.2457
     90  N         -2.7710   45.8380   31.6290 N.am   89  LEU89      -0.1963
     91  CA        -2.7880   44.6660   32.5220 C.3    89  LEU89       0.1728
     92  C         -2.6630   43.3960   31.7180 C.2    89  LEU89       0.2616
     93  O         -3.4130   43.1710   30.7610 O.2    89  LEU89      -0.2715
     94  CB        -4.0670   44.6120   33.3600 C.3    89  LEU89       0.0311
     95  CG        -4.1350   43.4880   34.4260 C.3    89  LEU89       0.0022
     96  CD1       -3.1910   43.7500   35.5440 C.3    89  LEU89       0.0001
     97  CD2       -5.5540   43.3530   34.9480 C.3    89  LEU89       0.0001
     98  N         -1.6890   42.5850   32.0840 N.am   90  VAL90      -0.1963
     99  CA        -1.3780   41.3020   31.4540 C.3    90  VAL90       0.1727
    100  C         -1.4770   40.2070   32.5250 C.2    90  VAL90       0.2616
    101  O         -0.7330   40.2100   33.5160 O.2    90  VAL90      -0.2715
    102  CB         0.0230   41.3040   30.7920 C.3    90  VAL90       0.0290
    103  CG1        0.3090   39.9790   30.0770 C.3    90  VAL90       0.0023
    104  CG2        0.1200   42.4440   29.8090 C.3    90  VAL90       0.0023
    105  N         -2.3960   39.2630   32.3070 N.am   91  SER91      -0.1950
    106  CA        -2.8090   38.3400   33.3860 C.3    91  SER91       0.1924
    107  C         -2.3410   36.9040   33.2670 C.2    91  SER91       0.2314
    108  O         -2.6980   36.0970   34.1400 O.2    91  SER91      -0.2863
    109  CB        -4.3360   38.3590   33.4980 C.3    91  SER91       0.2116
    110  OG        -4.7390   39.6830   33.7320 O.3    91  SER91      -0.2180
    111  N          0.7910   35.6590   33.5790 N.3    93  GLY93      -0.1210
    112  CA         2.0380   35.3570   34.2870 C.3    93  GLY93       0.1956
    113  C          3.2300   35.6440   33.4100 C.2    93  GLY93       0.2614
    114  O          3.0780   36.2560   32.3690 O.2    93  GLY93      -0.2717
    115  N          4.4170   35.2460   33.8860 N.am   94  GLU94      -0.1933
    116  CA         5.6860   35.4610   33.1970 C.3    94  GLU94       0.1818
    117  C          6.0900   34.1780   32.4990 C.2    94  GLU94       0.2332
    118  O          5.6530   33.0810   32.8670 O.2    94  GLU94      -0.2860
    119  CB         6.7940   35.8370   34.2090 C.2    94  GLU94       0.0097
    120  CG         6.5060   36.9780   35.1380 C.2    94  GLU94       0.0837
    121  CD         7.4480   37.1050   36.3210 C.2    94  GLU94       0.3877
    122  OE1        8.2750   36.1840   36.6000 O.co2  94  GLU94      -0.2406
    123  OE2        7.3360   38.1680   36.9800 O.co2  94  GLU94      -0.2406
    124  N          5.9920   38.5930   29.6530 N.3   140  MET140     -0.1245
    125  CA         4.6660   38.2090   30.1480 C.3   140  MET140      0.1570
    126  C          3.8200   37.5370   29.0890 C.2   140  MET140      0.2261
    127  O          3.9790   37.7910   27.9210 O.2   140  MET140     -0.2867
    128  CB         3.9470   39.4640   30.6780 C.3   140  MET140      0.0387
    129  CG         4.7050   40.1270   31.7730 C.3   140  MET140      0.0595
    130  SD         3.6760   41.2840   32.7630 S.3   140  MET140     -0.1393
    131  CE         2.4970   40.1370   33.5500 C.3   140  MET140      0.0692
    132  N          8.3530   43.3780   28.8900 N.3   154  ILE154     -0.1231
    133  CA         8.1740   44.4000   29.9120 C.3   154  ILE154      0.1692
    134  C          9.5140   44.8440   30.5040 C.2   154  ILE154      0.2592
    135  O         10.5740   44.3300   30.1560 O.2   154  ILE154     -0.2718
    136  CB         7.2130   43.9360   31.0770 C.3   154  ILE154      0.0266
    137  CG1        7.8210   42.7820   31.8870 C.3   154  ILE154      0.0019
    138  CG2        5.8020   43.5440   30.4640 C.3   154  ILE154      0.0020
    139  CD1        7.3040   42.6160   33.3490 C.3   154  ILE154      0.0001
    140  N          9.4160   45.8170   31.3980 N.am  155  ASP155     -0.1960
    141  CA        10.5200   46.3360   32.1910 C.3   155  ASP155      0.1840
    142  C         11.6520   46.9650   31.3670 C.2   155  ASP155      0.2622
    143  O         12.7410   46.3940   31.1730 O.2   155  ASP155     -0.2715
    144  CB        11.0590   45.3100   33.1660 C.3   155  ASP155      0.1450
    145  CG        11.9370   45.9280   34.2520 C.2   155  ASP155      0.3671
    146  OD1       12.1720   47.1370   34.2640 O.co2 155  ASP155     -0.2456
    147  OD2       12.4060   45.1690   35.0870 O.co2 155  ASP155     -0.2456
    148  N         11.3980   48.2250   31.0300 N.am  156  PHE156     -0.1974
    149  CA        12.3340   49.1020   30.3190 C.3   156  PHE156      0.1639
    150  C         13.1690   49.9830   31.2510 C.2   156  PHE156      0.2290
    151  O         13.7030   51.0030   30.8510 O.2   156  PHE156     -0.2864
    152  CB        11.5490   49.8520   29.2920 C.3   156  PHE156      0.0560
    153  CG        11.0930   48.9560   28.1670 C.ar  156  PHE156     -0.0200
    154  CD1        9.9270   48.2330   28.2650 C.ar  156  PHE156     -0.0042
    155  CD2       11.8880   48.7850   27.0340 C.ar  156  PHE156     -0.0042
    156  CE1        9.5640   47.3680   27.2190 C.ar  156  PHE156     -0.0003
    157  CE2       11.5310   47.9550   25.9910 C.ar  156  PHE156     -0.0003
    158  CZ        10.3640   47.2300   26.0880 C.ar  156  PHE156     -0.0000
@<TRIPOS>BOND
     1    52    51    2
     2    51    50    1
     3    57    58    1
     4    60    59    2
     5   157   158   ar
     6   157   155   ar
     7   158   156   ar
     8    89    87   ar
     9    59    58    1
    10    88    87   ar
    11    50    49    1
    12    50    53    1
    13    58    61    1
    14    87    86    1
    15   155   153   ar
    16   156   154   ar
    17   127   126    2
    18    53    54    1
    19   153   154   ar
    20   153   152    1
    21    86    85    1
    22    61    63    1
    23    61    62    1
    24    56    54    1
    25    85    82    1
    26   132   133    1
    27    54    55    1
    28   126   125    1
    29    43    42    2
    30    62    64    1
    31   152   149    1
    32   124   125    1
    33   104   102    1
    34   133   134    1
    35   133   136    1
    36   103   102    1
    37   125   128    1
    38    42    41    1
    39   135   134    2
    40    82    81    1
    41    82    83    1
    42   149   148    1
    43   149   150    1
    44   138   136    1
    45   134   140   am
    46    81    75   am
    47   128   129    1
    48    93    92    2
    49    41    40    1
    50    41    44    1
    51   102    99    1
    52   151   150    2
    53   148   142   am
    54   136   137    1
    55    83    84    2
    56    83    90   am
    57   143   142    2
    58    80    78    1
    59   142   141    1
    60   140   141    1
    61    99    98    1
    62    99   100    1
    63    90    91    1
    64    92    98   am
    65    92    91    1
    66   129   130    1
    67    75    74    1
    68    75    76    2
    69   137   139    1
    70    74    77    1
    71    74    73    1
    72    44    45    1
    73   141   144    1
    74    45    46    1
    75   105   100   am
    76   105   106    1
    77   114   113    2
    78    77    78    1
    79   117   118    2
    80   117   116    1
    81    91    94    1
    82   100   101    2
    83    78    79    1
    84   130   131    1
    85   144   145    1
    86   116   115    1
    87   116   119    1
    88   107   106    1
    89   107   108    2
    90    94    95    1
    91   106   109    1
    92   113   115   am
    93   113   112    1
    94   109   110    1
    95   111   112    1
    96    46    48   ar
    97    46    47   ar
    98    72    70    1
    99   119   120    2
   100    70    69    1
   101    70    71    1
   102   145   146   ar
   103   145   147   ar
   104    95    97    1
   105    95    96    1
   106    69    66    1
   107   120   121    1
   108    67    66    1
   109    67    68    2
   110    66    65    1
   111    26    27    1
   112    39    38    1
   113    29    28    2
   114    30    27    1
   115    27    28    1
   116   121   122   ar
   117   121   123   ar
   118    37    38    1
   119    37    36    1
   120    35    36    1
   121    35    32    1
   122    31    32    1
   123    32    33    1
   124    34    33    2
   125    24    23    1
   126     7     6    1
   127    25    23    1
   128    23    20    1
   129     6     8    1
   130     6     5    1
   131     5     2    1
   132    20    21    1
   133    20    19    1
   134    21    22    2
   135     2     3    1
   136     2     1    1
   137     4     3    2
   138     3     9   am
   139     9    10    1
   140    10    11    1
   141    12    11    2
   142    11    13   am
   143    16    15    2
   144    13    14    1
   145    15    14    1
   146    14    17    1
   147    17    18    1
