@<TRIPOS>MOLECULE
tmp/3br3B00.pdb
 182 174 0 0 0
SMALL
GASTEIGER

@<TRIPOS>ATOM
      1  N         47.1320  -13.2400   13.6190 N.3    52  LEU52      -0.1245
      2  CA        45.7260  -12.8730   13.4770 C.3    52  LEU52       0.1561
      3  C         44.9110  -13.2650   14.7080 C.2    52  LEU52       0.2260
      4  O         44.0140  -12.5270   15.1130 O.2    52  LEU52      -0.2867
      5  CB        45.1080  -13.5050   12.2210 C.3    52  LEU52       0.0270
      6  CG        45.6430  -13.0380   10.8650 C.3    52  LEU52       0.0019
      7  CD1       44.8280  -13.6730    9.7640 C.3    52  LEU52       0.0001
      8  CD2       45.6300  -11.5230   10.7300 C.3    52  LEU52       0.0001
      9  N         40.9580   -7.0930   19.2510 N.3    59  TRP59      -0.1241
     10  CA        39.6870   -6.6260   18.6900 C.3    59  TRP59       0.1605
     11  C         38.5280   -6.9610   19.6260 C.2    59  TRP59       0.2264
     12  O         37.6340   -6.1390   19.8270 O.2    59  TRP59      -0.2867
     13  CB        39.4350   -7.2150   17.2810 C.3    59  TRP59       0.0550
     14  CG        37.9840   -7.1560   16.8440 C.ar   59  TRP59       0.0003
     15  CD1       37.0680   -8.1630   16.9180 C.ar   59  TRP59       0.0946
     16  CD2       37.2910   -6.0250   16.2930 C.ar   59  TRP59       0.0152
     17  NE1       35.8500   -7.7360   16.4410 N.ar   59  TRP59      -0.2442
     18  CE2       35.9590   -6.4280   16.0510 C.ar   59  TRP59       0.0810
     19  CE3       37.6670   -4.7150   15.9730 C.ar   59  TRP59       0.0012
     20  CZ2       34.9980   -5.5650   15.5010 C.ar   59  TRP59       0.0191
     21  CZ3       36.7100   -3.8560   15.4310 C.ar   59  TRP59       0.0001
     22  CH2       35.3910   -4.2880   15.2030 C.ar   59  TRP59       0.0015
     23  N         28.6920   -1.7800   15.7230 N.3    80  TYR80      -0.1241
     24  CA        29.5820   -2.8610   15.2990 C.3    80  TYR80       0.1605
     25  C         29.9780   -2.6960   13.8400 C.2    80  TYR80       0.2264
     26  O         31.1630   -2.7680   13.4960 O.2    80  TYR80      -0.2867
     27  CB        28.9350   -4.2310   15.4860 C.3    80  TYR80       0.0534
     28  CG        29.9410   -5.3580   15.4180 C.ar   80  TYR80      -0.0201
     29  CD1       30.8330   -5.5930   16.4630 C.ar   80  TYR80      -0.0009
     30  CD2       30.0110   -6.1800   14.3130 C.ar   80  TYR80      -0.0009
     31  CE1       31.7610   -6.6330   16.4010 C.ar   80  TYR80       0.0417
     32  CE2       30.9330   -7.2220   14.2420 C.ar   80  TYR80       0.0417
     33  CZ        31.8040   -7.4450   15.2820 C.ar   80  TYR80       0.1957
     34  OH        32.7090   -8.4800   15.1800 O.3    80  TYR80      -0.2866
     35  N         33.6150   -1.6080   12.4730 N.3    84  SER84      -0.1217
     36  CA        34.2870   -2.4860   11.5050 C.3    84  SER84       0.1889
     37  C         34.8540   -1.6820   10.3490 C.2    84  SER84       0.2288
     38  O         36.0080   -1.8690    9.9640 O.2    84  SER84      -0.2866
     39  CB        33.3280   -3.5250   10.9260 C.3    84  SER84       0.2089
     40  OG        32.8140   -4.3820   11.9300 O.3    84  SER84      -0.2183
     41  N         37.6450    1.0930   11.7510 N.3    87  THR87      -0.1203
     42  CA        38.8520    0.4290   12.2510 C.3    87  THR87       0.1994
     43  C         39.7010   -0.1190   11.1180 C.2    87  THR87       0.2617
     44  O         40.8970    0.1450   11.0630 O.2    87  THR87      -0.2717
     45  CB        38.5190   -0.7170   13.2210 C.3    87  THR87       0.1784
     46  OG1       37.9770   -0.1650   14.4230 O.3    87  THR87      -0.2211
     47  CG2       39.7640   -1.5270   13.5650 C.3    87  THR87       0.0376
     48  N         39.0810   -0.8620   10.2070 N.am   88  GLN88      -0.1979
     49  CA        39.8060   -1.4360    9.0710 C.3    88  GLN88       0.1601
     50  C         40.3440   -0.3790    8.1030 C.2    88  GLN88       0.2287
     51  O         41.3100   -0.6290    7.3840 O.2    88  GLN88      -0.2864
     52  CB        38.9320   -2.4520    8.3310 C.3    88  GLN88       0.0394
     53  CG        38.6530   -3.7030    9.1680 C.3    88  GLN88       0.0908
     54  CD        37.6510   -4.6410    8.5260 C.2    88  GLN88       0.2608
     55  OE1       37.8520   -5.1060    7.4020 O.2    88  GLN88      -0.2717
     56  NE2       36.5630   -4.9260    9.2370 N.am   88  GLN88      -0.0878
     57  N         43.6670    0.3060    9.7030 N.3    91  TYR91      -0.1241
     58  CA        44.3280   -0.8750   10.2620 C.3    91  TYR91       0.1605
     59  C         45.4610   -1.3490    9.3320 C.2    91  TYR91       0.2264
     60  O         45.2070   -1.7560    8.1890 O.2    91  TYR91      -0.2867
     61  CB        43.3030   -1.9900   10.4740 C.3    91  TYR91       0.0534
     62  CG        43.8440   -3.2330   11.1350 C.ar   91  TYR91      -0.0201
     63  CD1       43.7000   -4.4800   10.5370 C.ar   91  TYR91      -0.0009
     64  CD2       44.4810   -3.1680   12.3730 C.ar   91  TYR91      -0.0009
     65  CE1       44.1860   -5.6310   11.1450 C.ar   91  TYR91       0.0417
     66  CE2       44.9780   -4.3150   12.9910 C.ar   91  TYR91       0.0417
     67  CZ        44.8280   -5.5400   12.3700 C.ar   91  TYR91       0.1957
     68  OH        45.3130   -6.6760   12.9690 O.3    91  TYR91      -0.2866
     69  N         45.7230   -4.8100    7.3650 N.3    94  GLN94      -0.1245
     70  CA        44.6630   -5.1040    6.4060 C.3    94  GLN94       0.1566
     71  C         45.2020   -5.5870    5.0500 C.2    94  GLN94       0.2260
     72  O         44.7840   -6.6320    4.5560 O.2    94  GLN94      -0.2867
     73  CB        43.7460   -3.8910    6.2310 C.3    94  GLN94       0.0367
     74  CG        42.3670   -4.2230    5.7050 C.3    94  GLN94       0.0905
     75  CD        41.5500   -5.0750    6.6580 C.2    94  GLN94       0.2608
     76  OE1       41.9880   -5.3990    7.7650 O.2    94  GLN94      -0.2717
     77  NE2       40.3490   -5.4500    6.2250 N.am   94  GLN94      -0.0878
     78  N         46.4700   -9.0520    5.3250 N.3    97  ILE97      -0.1245
     79  CA        45.3460   -9.9760    5.4910 C.3    97  ILE97       0.1561
     80  C         44.6910  -10.2760    4.1410 C.2    97  ILE97       0.2260
     81  O         44.3340  -11.4190    3.8530 O.2    97  ILE97      -0.2867
     82  CB        44.2880   -9.4160    6.4680 C.3    97  ILE97       0.0252
     83  CG1       44.8520   -9.3820    7.8920 C.3    97  ILE97       0.0019
     84  CG2       43.0400  -10.2620    6.4280 C.3    97  ILE97       0.0019
     85  CD1       43.8860   -8.8460    8.9280 C.3    97  ILE97       0.0001
     86  N         44.4680  -13.9950    2.6970 N.3   101  TYR101     -0.1241
     87  CA        43.1520  -14.5440    2.4230 C.3   101  TYR101      0.1605
     88  C         43.0290  -14.9610    0.9650 C.2   101  TYR101      0.2264
     89  O         42.6530  -16.0900    0.6650 O.2   101  TYR101     -0.2867
     90  CB        42.0650  -13.5230    2.7470 C.3   101  TYR101      0.0534
     91  CG        40.6740  -14.0650    2.5340 C.ar  101  TYR101     -0.0201
     92  CD1       40.2320  -15.1690    3.2490 C.ar  101  TYR101     -0.0009
     93  CD2       39.8010  -13.4830    1.6180 C.ar  101  TYR101     -0.0009
     94  CE1       38.9640  -15.6850    3.0660 C.ar  101  TYR101      0.0417
     95  CE2       38.5200  -13.9940    1.4280 C.ar  101  TYR101      0.0417
     96  CZ        38.1110  -15.0960    2.1590 C.ar  101  TYR101      0.1957
     97  OH        36.8540  -15.6240    1.9980 O.3   101  TYR101     -0.2866
     98  N         41.1280  -20.4550    9.2440 N.3   114  MET114     -0.1245
     99  CA        40.5690  -19.1640    8.8330 C.3   114  MET114      0.1570
    100  C         39.0880  -19.0720    9.1710 C.2   114  MET114      0.2261
    101  O         38.6300  -18.0520    9.6780 O.2   114  MET114     -0.2867
    102  CB        40.7390  -18.9620    7.3270 C.3   114  MET114      0.0387
    103  CG        42.1370  -18.5530    6.8970 C.3   114  MET114      0.0595
    104  SD        42.4910  -16.8130    7.2050 S.3   114  MET114     -0.1393
    105  CE        41.0970  -16.0180    6.4100 C.3   114  MET114      0.0692
    106  N         38.5210  -18.4520   12.7810 N.3   117  LEU117     -0.1231
    107  CA        38.7740  -17.0510   13.1090 C.3   117  LEU117      0.1693
    108  C         37.6380  -16.1190   12.6750 C.2   117  LEU117      0.2591
    109  O         37.2090  -15.2570   13.4490 O.2   117  LEU117     -0.2718
    110  CB        40.0730  -16.5970   12.4520 C.3   117  LEU117      0.0284
    111  CG        40.5830  -15.2120   12.8410 C.3   117  LEU117      0.0019
    112  CD1       41.0790  -15.2120   14.2870 C.3   117  LEU117      0.0001
    113  CD2       41.6840  -14.7800   11.8800 C.3   117  LEU117      0.0001
    114  N         37.1780  -16.2770   11.4330 N.am  118  GLU118     -0.1979
    115  CA        36.0650  -15.4860   10.9080 C.3   118  GLU118      0.1602
    116  C         34.7990  -15.7120   11.7140 C.2   118  GLU118      0.2287
    117  O         34.0430  -14.7810   11.9440 O.2   118  GLU118     -0.2864
    118  CB        35.7880  -15.8260    9.4370 C.3   118  GLU118      0.0415
    119  CG        36.8770  -15.3730    8.4650 C.3   118  GLU118      0.1163
    120  CD        36.6070  -15.7700    7.0160 C.2   118  GLU118      0.3649
    121  OE1       35.8970  -16.7740    6.7780 O.co2 118  GLU118     -0.2457
    122  OE2       37.1170  -15.0730    6.1100 O.co2 118  GLU118     -0.2457
    123  N         34.2410  -13.3860   14.6350 N.3   121  TYR121     -0.1227
    124  CA        33.6830  -12.0820   14.2580 C.3   121  TYR121      0.1736
    125  C         32.1940  -12.2180   14.0200 C.2   121  TYR121      0.2595
    126  O         31.4270  -11.3190   14.3520 O.2   121  TYR121     -0.2718
    127  CB        34.3590  -11.5060   13.0050 C.3   121  TYR121      0.0548
    128  CG        35.7900  -11.0710   13.2320 C.ar  121  TYR121     -0.0200
    129  CD1       36.8400  -11.9610   13.0510 C.ar  121  TYR121     -0.0009
    130  CD2       36.0940   -9.7740   13.6480 C.ar  121  TYR121     -0.0009
    131  CE1       38.1550  -11.5770   13.2700 C.ar  121  TYR121      0.0417
    132  CE2       37.4090   -9.3780   13.8610 C.ar  121  TYR121      0.0417
    133  CZ        38.4340  -10.2890   13.6720 C.ar  121  TYR121      0.1957
    134  OH        39.7440   -9.9220   13.8790 O.3   121  TYR121     -0.2866
    135  N         31.7960  -13.3520   13.4520 N.am  122  ILE122     -0.1980
    136  CA        30.3920  -13.6380   13.1820 C.3   122  ILE122      0.1595
    137  C         29.6100  -13.7750   14.4920 C.2   122  ILE122      0.2287
    138  O         28.4930  -13.2770   14.6070 O.2   122  ILE122     -0.2864
    139  CB        30.2420  -14.9220   12.3210 C.3   122  ILE122      0.0276
    140  CG1       30.8450  -14.7050   10.9260 C.3   122  ILE122      0.0022
    141  CG2       28.7820  -15.3340   12.1940 C.3   122  ILE122      0.0022
    142  CD1       31.0830  -15.9830   10.1430 C.3   122  ILE122      0.0001
    143  N         27.7700  -10.8600   16.0770 N.3   125  TYR125     -0.1241
    144  CA        26.4090  -10.6980   15.5320 C.3   125  TYR125      0.1605
    145  C         25.3890  -11.6450   16.1840 C.2   125  TYR125      0.2264
    146  O         24.2420  -11.2570   16.4280 O.2   125  TYR125     -0.2867
    147  CB        26.3900  -10.8840   13.9990 C.3   125  TYR125      0.0534
    148  CG        27.0710   -9.7680   13.2390 C.ar  125  TYR125     -0.0201
    149  CD1       26.4000   -8.5840   12.9540 C.ar  125  TYR125     -0.0009
    150  CD2       28.3900   -9.8840   12.8270 C.ar  125  TYR125     -0.0009
    151  CE1       27.0210   -7.5470   12.2770 C.ar  125  TYR125      0.0417
    152  CE2       29.0220   -8.8540   12.1440 C.ar  125  TYR125      0.0417
    153  CZ        28.3300   -7.6910   11.8680 C.ar  125  TYR125      0.1957
    154  OH        28.9490   -6.6680   11.1890 O.3   125  TYR125     -0.2866
    155  N         27.1740  -10.4800    8.7960 N.3   151  ALA151     -0.1231
    156  CA        28.6250  -10.3430    8.8580 C.3   151  ALA151      0.1694
    157  C         29.2480  -10.2900    7.4570 C.2   151  ALA151      0.2592
    158  O         29.9990   -9.3700    7.1330 O.2   151  ALA151     -0.2718
    159  CB        29.2410  -11.4730    9.6900 C.3   151  ALA151      0.0304
    160  N         28.9270  -11.2740    6.6270 N.am  152  ASN152     -0.1974
    161  CA        29.4830  -11.3250    5.2850 C.3   152  ASN152      0.1688
    162  C         29.0580  -10.1250    4.4240 C.2   152  ASN152      0.2292
    163  O         29.8490   -9.6390    3.6090 O.2   152  ASN152     -0.2864
    164  CB        29.1130  -12.6390    4.6100 C.3   152  ASN152      0.1181
    165  CG        29.7380  -13.8410    5.3000 C.2   152  ASN152      0.2629
    166  OD1       30.8390  -13.7510    5.8510 O.2   152  ASN152     -0.2716
    167  ND2       29.0400  -14.9770    5.2660 N.am  152  ASN152     -0.0877
    168  N         28.2130   -7.0000    5.5830 N.3   154  VAL154     -0.1231
    169  CA        28.9180   -5.8530    6.1560 C.3   154  VAL154      0.1692
    170  C         30.3730   -5.8770    5.7060 C.2   154  VAL154      0.2592
    171  O         30.9250   -4.8540    5.3050 O.2   154  VAL154     -0.2718
    172  CB        28.8260   -5.8600    7.7310 C.3   154  VAL154      0.0266
    173  CG1       29.7770   -4.8320    8.3730 C.3   154  VAL154      0.0020
    174  CG2       27.3920   -5.6300    8.1890 C.3   154  VAL154      0.0020
    175  N         30.9930   -7.0490    5.7540 N.am  155  ASN155     -0.1974
    176  CA        32.3930   -7.1640    5.3660 C.3   155  ASN155      0.1688
    177  C         32.6150   -6.8890    3.8900 C.2   155  ASN155      0.2292
    178  O         33.6900   -6.4290    3.4990 O.2   155  ASN155     -0.2864
    179  CB        32.9580   -8.5450    5.7060 C.3   155  ASN155      0.1181
    180  CG        34.4740   -8.5290    5.8500 C.2   155  ASN155      0.2629
    181  OD1       35.1820   -9.3080    5.1960 O.2   155  ASN155     -0.2716
    182  ND2       34.9850   -7.6330    6.7120 N.am  155  ASN155     -0.0877
@<TRIPOS>BOND
     1    89    88    2
     2    88    87    1
     3    95    93   ar
     4    95    96   ar
     5    93    91   ar
     6    97    96    1
     7    96    94   ar
     8    87    86    1
     9    87    90    1
    10    91    90    1
    11    91    92   ar
    12    94    92   ar
    13   178   177    2
    14   163   162    2
    15    81    80    2
    16   177   176    1
    17    80    79    1
    18   162   161    1
    19    72    71    2
    20   164   161    1
    21   164   165    1
    22    71    70    1
    23   181   180    2
    24   167   165   am
    25   161   160    1
    26   165   166    2
    27   171   170    2
    28    78    79    1
    29   176   179    1
    30   176   175    1
    31    79    82    1
    32   168   169    1
    33    74    73    1
    34    74    75    1
    35   170   175   am
    36   170   169    1
    37   179   180    1
    38   180   182   am
    39   122   120   ar
    40   169   172    1
    41    77    75   am
    42    73    70    1
    43    70    69    1
    44   105   104    1
    45    84    82    1
    46    82    83    1
    47   160   157   am
    48    75    76    2
    49   121   120   ar
    50   103   104    1
    51   103   102    1
    52   120   119    1
    53   158   157    2
    54   102    99    1
    55    51    50    2
    56    55    54    2
    57   157   156    1
    58   172   174    1
    59   172   173    1
    60    83    85    1
    61    50    49    1
    62    60    59    2
    63    52    49    1
    64    52    53    1
    65   119   118    1
    66    54    53    1
    67    54    56   am
    68   155   156    1
    69    99   100    1
    70    99    98    1
    71   156   159    1
    72    49    48    1
    73   100   101    2
    74    59    58    1
    75   118   115    1
    76    57    58    1
    77     7     6    1
    78    38    37    2
    79   142   140    1
    80    48    43   am
    81    58    61    1
    82    37    36    1
    83    61    62    1
    84    63    62   ar
    85    63    65   ar
    86     8     6    1
    87     6     5    1
    88   115   114    1
    89   115   116    1
    90   140   139    1
    91    39    36    1
    92    39    40    1
    93    44    43    2
    94    43    42    1
    95    62    64   ar
    96    65    67   ar
    97   154   153    1
    98   114   108   am
    99    36    35    1
   100   116   117    2
   101    41    42    1
   102   153   152   ar
   103   153   151   ar
   104   113   111    1
   105   152   150   ar
   106   141   139    1
   107     5     2    1
   108    42    45    1
   109   151   149   ar
   110   139   136    1
   111    67    68    1
   112    67    66   ar
   113    64    66   ar
   114   110   111    1
   115   110   107    1
   116   108   107    1
   117   108   109    2
   118   106   107    1
   119   150   148   ar
   120   111   112    1
   121   149   148   ar
   122   127   128    1
   123   127   124    1
   124   129   128   ar
   125   129   131   ar
   126   136   135    1
   127   136   137    1
   128    45    47    1
   129    45    46    1
   130   128   130   ar
   131   148   147    1
   132   131   133   ar
   133   135   125   am
   134     2     1    1
   135     2     3    1
   136    26    25    2
   137   130   132   ar
   138   133   132   ar
   139   133   134    1
   140    25    24    1
   141   147   144    1
   142   125   124    1
   143   125   126    2
   144    32    30   ar
   145    32    33   ar
   146   124   123    1
   147    30    28   ar
   148   137   138    2
   149     3     4    2
   150    34    33    1
   151    22    21   ar
   152    22    20   ar
   153    33    31   ar
   154    24    27    1
   155    24    23    1
   156    28    27    1
   157    28    29   ar
   158    21    19   ar
   159    20    18   ar
   160   144   143    1
   161   144   145    1
   162    19    16   ar
   163    18    16   ar
   164    18    17   ar
   165   145   146    2
   166    16    14   ar
   167    31    29   ar
   168    17    15   ar
   169    14    15   ar
   170    14    13    1
   171    13    10    1
   172    10     9    1
   173    10    11    1
   174    11    12    2
