@<TRIPOS>MOLECULE
tmp/3br6C00.pdb
 206 197 0 0 0
SMALL
GASTEIGER

@<TRIPOS>ATOM
      1  N        -60.5630  -49.4400   11.6780 N.3    53  LEU53      -0.1245
      2  CA       -61.6130  -48.6410   11.0600 C.3    53  LEU53       0.1561
      3  C        -61.3880  -47.1280   11.2380 C.2    53  LEU53       0.2260
      4  O        -61.7350  -46.3410   10.3600 O.2    53  LEU53      -0.2867
      5  CB       -62.9900  -49.0660   11.5890 C.3    53  LEU53       0.0270
      6  CG       -63.6960  -50.1840   10.8020 C.3    53  LEU53       0.0019
      7  CD1      -62.7820  -51.3660   10.5260 C.3    53  LEU53       0.0001
      8  CD2      -64.9600  -50.6470   11.5260 C.3    53  LEU53       0.0001
      9  N        -58.3730  -46.0940    8.8770 N.3    56  GLU56      -0.1231
     10  CA       -58.8580  -46.0430    7.4970 C.3    56  GLU56       0.1699
     11  C        -59.6580  -44.7820    7.2620 C.2    56  GLU56       0.2592
     12  O        -59.5150  -44.1280    6.2350 O.2    56  GLU56      -0.2718
     13  CB       -59.7480  -47.2470    7.1870 C.3    56  GLU56       0.0402
     14  CG       -59.0630  -48.6070    7.2700 C.3    56  GLU56       0.1161
     15  CD       -58.0510  -48.8490    6.1680 C.2    56  GLU56       0.3649
     16  OE1      -58.4270  -48.7820    4.9760 O.co2  56  GLU56      -0.2457
     17  OE2      -56.8770  -49.1240    6.5110 O.co2  56  GLU56      -0.2457
     18  N        -60.5170  -44.4610    8.2180 N.am   57  GLU57      -0.1979
     19  CA       -61.2690  -43.2080    8.2110 C.3    57  GLU57       0.1602
     20  C        -60.3890  -41.9980    7.9160 C.2    57  GLU57       0.2287
     21  O        -60.7360  -41.1480    7.1010 O.2    57  GLU57      -0.2864
     22  CB       -61.9380  -43.0240    9.5720 C.3    57  GLU57       0.0415
     23  CG       -62.2030  -41.5860    9.9700 C.3    57  GLU57       0.1163
     24  CD       -63.3050  -40.9700    9.1550 C.2    57  GLU57       0.3649
     25  OE1      -64.3700  -41.6240    9.0530 O.co2  57  GLU57      -0.2457
     26  OE2      -63.1190  -39.8410    8.6350 O.co2  57  GLU57      -0.2457
     27  N        -57.3510  -42.0430    6.6130 N.3    59  LYS59      -0.1231
     28  CA       -56.7740  -42.1960    5.2840 C.3    59  LYS59       0.1693
     29  C        -57.7620  -41.6940    4.2500 C.2    59  LYS59       0.2592
     30  O        -57.3580  -41.1640    3.2230 O.2    59  LYS59      -0.2718
     31  CB       -56.4200  -43.6550    4.9840 C.3    59  LYS59       0.0285
     32  CG       -55.3330  -44.2580    5.8800 C.3    59  LYS59       0.0035
     33  CD       -53.9120  -44.0090    5.3540 C.3    59  LYS59       0.0206
     34  CE       -52.8790  -44.9100    6.0540 C.3    59  LYS59       0.1093
     35  NZ       -53.1160  -46.3710    5.8070 N.3    59  LYS59      -0.1314
     36  N        -59.0550  -41.8550    4.5230 N.am   60  TRP60      -0.1962
     37  CA       -60.0930  -41.4110    3.5970 C.3    60  TRP60       0.1771
     38  C        -60.1520  -39.9040    3.5250 C.2    60  TRP60       0.2619
     39  O        -60.1420  -39.3370    2.4390 O.2    60  TRP60      -0.2715
     40  CB       -61.4570  -41.9520    4.0090 C.3    60  TRP60       0.0590
     41  CG       -62.6190  -41.2820    3.3300 C.ar   60  TRP60       0.0006
     42  CD1      -63.3850  -40.2590    3.8270 C.ar   60  TRP60       0.0946
     43  CD2      -63.1600  -41.5960    2.0450 C.ar   60  TRP60       0.0152
     44  NE1      -64.3710  -39.9260    2.9320 N.ar   60  TRP60      -0.2442
     45  CE2      -64.2530  -40.7280    1.8280 C.ar   60  TRP60       0.0810
     46  CE3      -62.8270  -42.5210    1.0550 C.ar   60  TRP60       0.0012
     47  CZ2      -65.0090  -40.7600    0.6590 C.ar   60  TRP60       0.0191
     48  CZ3      -63.5810  -42.5560   -0.0990 C.ar   60  TRP60       0.0001
     49  CH2      -64.6550  -41.6790   -0.2920 C.ar   60  TRP60       0.0015
     50  N        -60.2350  -39.2600    4.6840 N.am   61  GLN61      -0.1977
     51  CA       -60.2580  -37.7970    4.7370 C.3    61  GLN61       0.1601
     52  C        -58.9910  -37.2310    4.1050 C.2    61  GLN61       0.2287
     53  O        -59.0450  -36.2360    3.3940 O.2    61  GLN61      -0.2864
     54  CB       -60.4400  -37.2820    6.1760 C.3    61  GLN61       0.0394
     55  CG       -61.9080  -37.2420    6.6470 C.3    61  GLN61       0.0908
     56  CD       -62.0890  -36.6000    8.0290 C.2    61  GLN61       0.2608
     57  OE1      -61.3480  -35.6840    8.4120 O.2    61  GLN61      -0.2717
     58  NE2      -63.0840  -37.0790    8.7800 N.am   61  GLN61      -0.0878
     59  N        -57.3390  -38.7400    1.7090 N.3    63  GLN63      -0.1245
     60  CA       -57.5460  -38.9710    0.2750 C.3    63  GLN63       0.1566
     61  C        -58.4780  -37.9260   -0.3220 C.2    63  GLN63       0.2260
     62  O        -58.1930  -37.3490   -1.3670 O.2    63  GLN63      -0.2867
     63  CB       -58.0750  -40.3910    0.0120 C.3    63  GLN63       0.0367
     64  CG       -56.9510  -41.4350   -0.1130 C.3    63  GLN63       0.0905
     65  CD       -57.3800  -42.8750    0.1880 C.2    63  GLN63       0.2608
     66  OE1      -58.3310  -43.1140    0.9350 O.2    63  GLN63      -0.2717
     67  NE2      -56.6540  -43.8380   -0.3790 N.am   63  GLN63      -0.0878
     68  N        -67.8570  -36.2460   -4.4880 N.3    81  TYR81      -0.1241
     69  CA       -67.7840  -37.0360   -3.2700 C.3    81  TYR81       0.1605
     70  C        -68.7010  -38.2410   -3.3400 C.2    81  TYR81       0.2264
     71  O        -68.2920  -39.3630   -3.0400 O.2    81  TYR81      -0.2867
     72  CB       -68.1890  -36.1840   -2.0890 C.3    81  TYR81       0.0534
     73  CG       -67.8930  -36.8020   -0.7500 C.ar   81  TYR81      -0.0201
     74  CD1      -66.5820  -36.9240   -0.2980 C.ar   81  TYR81      -0.0009
     75  CD2      -68.9270  -37.2310    0.0880 C.ar   81  TYR81      -0.0009
     76  CE1      -66.2990  -37.4670    0.9420 C.ar   81  TYR81       0.0417
     77  CE2      -68.6570  -37.7780    1.3370 C.ar   81  TYR81       0.0417
     78  CZ       -67.3380  -37.8920    1.7570 C.ar   81  TYR81       0.1957
     79  OH       -67.0600  -38.4240    2.9940 O.3    81  TYR81      -0.2866
     80  N        -67.5960  -42.2440   -3.3620 N.3    85  SER85      -0.1217
     81  CA       -68.1810  -43.1930   -2.4360 C.3    85  SER85       0.1889
     82  C        -68.7130  -44.3870   -3.1930 C.2    85  SER85       0.2288
     83  O        -68.5230  -45.5170   -2.7660 O.2    85  SER85      -0.2866
     84  CB       -69.3110  -42.5370   -1.6570 C.3    85  SER85       0.2089
     85  OG       -68.8540  -41.3700   -0.9960 O.3    85  SER85      -0.2183
     86  N        -65.5320  -46.5630   -4.7890 N.3    88  THR88      -0.1203
     87  CA       -65.0300  -47.2710   -3.6040 C.3    88  THR88       0.1994
     88  C        -65.5730  -48.6830   -3.3610 C.2    88  THR88       0.2617
     89  O        -64.8120  -49.6420   -3.3270 O.2    88  THR88      -0.2717
     90  CB       -65.3480  -46.4420   -2.3380 C.3    88  THR88       0.1784
     91  OG1      -64.2180  -45.6180   -2.0090 O.3    88  THR88      -0.2211
     92  CG2      -65.7170  -47.3460   -1.1580 C.3    88  THR88       0.0376
     93  N        -66.8820  -48.8080   -3.1810 N.am   89  GLU89      -0.1979
     94  CA       -67.4670  -50.0820   -2.7470 C.3    89  GLU89       0.1602
     95  C        -66.9910  -51.2600   -3.5900 C.2    89  GLU89       0.2287
     96  O        -66.8220  -52.3600   -3.0730 O.2    89  GLU89      -0.2864
     97  CB       -69.0080  -50.0110   -2.7120 C.3    89  GLU89       0.0415
     98  CG       -69.7730  -50.5690   -3.9450 C.3    89  GLU89       0.1163
     99  CD       -70.1730  -52.0460   -3.7990 C.2    89  GLU89       0.3649
    100  OE1      -70.8600  -52.5920   -4.6990 O.co2  89  GLU89      -0.2457
    101  OE2      -69.8070  -52.6660   -2.7780 O.co2  89  GLU89      -0.2457
    102  N        -64.0460  -51.9570   -4.8350 N.3    91  TYR91      -0.1227
    103  CA       -62.7140  -52.5000   -4.5670 C.3    91  TYR91       0.1736
    104  C        -62.1700  -52.3250   -3.1480 C.2    91  TYR91       0.2595
    105  O        -61.0050  -52.6410   -2.8960 O.2    91  TYR91      -0.2718
    106  CB       -61.6900  -51.9790   -5.5970 C.3    91  TYR91       0.0548
    107  CG       -61.5210  -50.4740   -5.6960 C.ar   91  TYR91      -0.0200
    108  CD1      -61.0160  -49.7250   -4.6280 C.ar   91  TYR91      -0.0009
    109  CD2      -61.8190  -49.8070   -6.8810 C.ar   91  TYR91      -0.0009
    110  CE1      -60.8480  -48.3440   -4.7300 C.ar   91  TYR91       0.0417
    111  CE2      -61.6490  -48.4360   -7.0010 C.ar   91  TYR91       0.0417
    112  CZ       -61.1630  -47.7040   -5.9240 C.ar   91  TYR91       0.1957
    113  OH       -60.9990  -46.3350   -6.0540 O.3    91  TYR91      -0.2866
    114  N        -62.9870  -51.8510   -2.2180 N.am   92  TYR92      -0.1976
    115  CA       -62.5170  -51.7030   -0.8540 C.3    92  TYR92       0.1639
    116  C        -62.5460  -53.0740   -0.1990 C.2    92  TYR92       0.2290
    117  O        -63.6070  -53.6720   -0.1080 O.2    92  TYR92      -0.2864
    118  CB       -63.3920  -50.7290   -0.0880 C.3    92  TYR92       0.0560
    119  CG       -62.8360  -50.3760    1.2620 C.ar   92  TYR92      -0.0198
    120  CD1      -63.5880  -50.5560    2.4120 C.ar   92  TYR92      -0.0009
    121  CD2      -61.5510  -49.8730    1.3920 C.ar   92  TYR92      -0.0009
    122  CE1      -63.0780  -50.2320    3.6540 C.ar   92  TYR92       0.0417
    123  CE2      -61.0340  -49.5460    2.6300 C.ar   92  TYR92       0.0417
    124  CZ       -61.8010  -49.7280    3.7560 C.ar   92  TYR92       0.1957
    125  OH       -61.2920  -49.4070    4.9890 O.3    92  TYR92      -0.2866
    126  N        -64.3660  -53.8690    3.2260 N.3    95  GLN95      -0.1245
    127  CA       -65.8090  -53.9050    2.9610 C.3    95  GLN95       0.1566
    128  C        -66.5260  -55.1010    3.5880 C.2    95  GLN95       0.2260
    129  O        -67.4590  -54.9300    4.3640 O.2    95  GLN95      -0.2867
    130  CB       -66.0400  -53.8990    1.4390 C.3    95  GLN95       0.0367
    131  CG       -67.4740  -53.7750    0.9770 C.3    95  GLN95       0.0905
    132  CD       -68.0470  -52.3980    1.2340 C.2    95  GLN95       0.2608
    133  OE1      -67.7980  -51.7930    2.2810 O.2    95  GLN95      -0.2717
    134  NE2      -68.8260  -51.8900    0.2770 N.am   95  GLN95      -0.0878
    135  N        -66.2140  -55.5270    7.3850 N.3    98  ILE98      -0.1231
    136  CA       -67.0010  -54.4940    8.0650 C.3    98  ILE98       0.1692
    137  C        -68.4450  -54.9320    8.2480 C.2    98  ILE98       0.2591
    138  O        -69.0240  -54.7260    9.3120 O.2    98  ILE98      -0.2718
    139  CB       -66.9970  -53.1730    7.2850 C.3    98  ILE98       0.0266
    140  CG1      -65.6250  -52.5180    7.3610 C.3    98  ILE98       0.0019
    141  CG2      -68.0330  -52.2150    7.8370 C.3    98  ILE98       0.0020
    142  CD1      -65.3930  -51.4930    6.2840 C.3    98  ILE98       0.0001
    143  N        -69.0210  -55.5360    7.2090 N.am   99  ILE99      -0.1980
    144  CA       -70.4070  -56.0190    7.2670 C.3    99  ILE99       0.1595
    145  C        -70.5450  -57.0980    8.3470 C.2    99  ILE99       0.2287
    146  O        -71.5170  -57.1000    9.1030 O.2    99  ILE99      -0.2864
    147  CB       -70.9310  -56.6010    5.9130 C.3    99  ILE99       0.0276
    148  CG1      -70.5640  -55.7340    4.6950 C.3    99  ILE99       0.0022
    149  CG2      -72.4260  -56.7590    5.9680 C.3    99  ILE99       0.0022
    150  CD1      -70.6790  -54.2390    4.8920 C.3    99  ILE99       0.0001
    151  N        -67.8260  -42.8450   14.6540 N.3   117  LEU117     -0.1245
    152  CA       -66.9910  -43.0880   13.4780 C.3   117  LEU117      0.1561
    153  C        -67.6490  -42.6300   12.1820 C.2   117  LEU117      0.2260
    154  O        -66.9670  -42.2840   11.2190 O.2   117  LEU117     -0.2867
    155  CB       -66.6640  -44.5830   13.3920 C.3   117  LEU117      0.0270
    156  CG       -65.5950  -45.0790   12.4210 C.3   117  LEU117      0.0019
    157  CD1      -64.4710  -44.0740   12.2020 C.3   117  LEU117      0.0001
    158  CD2      -65.0460  -46.3960   12.9530 C.3   117  LEU117      0.0001
    159  N        -67.4990  -38.5950   11.5170 N.3   120  LYS120     -0.1231
    160  CA       -66.3870  -38.0750   10.7410 C.3   120  LYS120      0.1693
    161  C        -66.7400  -38.0880    9.2530 C.2   120  LYS120      0.2592
    162  O        -66.4300  -37.1460    8.5340 O.2   120  LYS120     -0.2718
    163  CB       -65.1130  -38.8780   11.0020 C.3   120  LYS120      0.0285
    164  CG       -64.4940  -38.6940   12.3920 C.3   120  LYS120      0.0035
    165  CD       -63.2770  -39.6080   12.5360 C.3   120  LYS120      0.0206
    166  CE       -62.4850  -39.3950   13.8210 C.3   120  LYS120      0.1093
    167  NZ       -61.2440  -40.2370   13.8300 N.3   120  LYS120     -0.1314
    168  N        -67.3990  -39.1520    8.8010 N.am  121  TYR121     -0.1976
    169  CA       -67.8470  -39.2570    7.4020 C.3   121  TYR121      0.1639
    170  C        -68.9110  -38.2300    7.0410 C.2   121  TYR121      0.2290
    171  O        -68.9570  -37.7480    5.9080 O.2   121  TYR121     -0.2864
    172  CB       -68.4020  -40.6500    7.1160 C.3   121  TYR121      0.0560
    173  CG       -69.0730  -40.7850    5.7610 C.ar  121  TYR121     -0.0198
    174  CD1      -68.3480  -40.6160    4.5840 C.ar  121  TYR121     -0.0009
    175  CD2      -70.4360  -41.1030    5.6570 C.ar  121  TYR121     -0.0009
    176  CE1      -68.9560  -40.7560    3.3290 C.ar  121  TYR121      0.0417
    177  CE2      -71.0580  -41.2430    4.4060 C.ar  121  TYR121      0.0417
    178  CZ       -70.3060  -41.0670    3.2460 C.ar  121  TYR121      0.1957
    179  OH       -70.8970  -41.2040    2.0090 O.3   121  TYR121     -0.2866
    180  N        -67.7710  -34.4620    6.3380 N.3   124  ALA124     -0.1245
    181  CA       -67.3810  -34.1120    4.9750 C.3   124  ALA124      0.1562
    182  C        -68.4620  -33.2540    4.3180 C.2   124  ALA124      0.2260
    183  O        -68.1700  -32.1670    3.8340 O.2   124  ALA124     -0.2867
    184  CB       -67.0930  -35.3760    4.1490 C.3   124  ALA124      0.0290
    185  N        -75.1620  -43.3850    0.9390 N.3   155  ASN155     -0.1240
    186  CA       -74.8180  -44.7430    1.4120 C.3   155  ASN155      0.1653
    187  C        -75.8720  -45.7940    1.0410 C.2   155  ASN155      0.2266
    188  O        -75.5430  -46.9440    0.7560 O.2   155  ASN155     -0.2867
    189  CB       -74.5800  -44.7500    2.9310 C.3   155  ASN155      0.1155
    190  CG       -74.1000  -46.1170    3.4600 C.2   155  ASN155      0.2627
    191  OD1      -73.6010  -46.9650    2.7070 O.2   155  ASN155     -0.2716
    192  ND2      -74.2440  -46.3230    4.7720 N.am  155  ASN155     -0.0877
    193  N        -75.4030  -46.4110   -2.8090 N.3   158  VAL158     -0.1231
    194  CA       -74.2270  -47.2480   -2.9480 C.3   158  VAL158      0.1692
    195  C        -74.5720  -48.6870   -2.5810 C.2   158  VAL158      0.2592
    196  O        -74.4180  -49.5810   -3.4010 O.2   158  VAL158     -0.2718
    197  CB       -73.0740  -46.7690   -2.0540 C.3   158  VAL158      0.0266
    198  CG1      -71.9150  -47.7290   -2.1410 C.3   158  VAL158      0.0020
    199  CG2      -72.6290  -45.3960   -2.4600 C.3   158  VAL158      0.0020
    200  N        -75.0810  -48.8920   -1.3680 N.am  159  THR159     -0.1953
    201  CA       -75.2170  -50.2360   -0.7930 C.3   159  THR159      0.1897
    202  C        -76.3540  -51.1050   -1.3720 C.2   159  THR159      0.2313
    203  O        -76.1800  -52.3070   -1.5420 O.2   159  THR159     -0.2863
    204  CB       -75.3500  -50.1710    0.7520 C.3   159  THR159      0.1794
    205  OG1      -74.0860  -49.8240    1.3370 O.3   159  THR159     -0.2208
    206  CG2      -75.7930  -51.5020    1.3120 C.3   159  THR159      0.0378
@<TRIPOS>BOND
     1   111   109   ar
     2   111   112   ar
     3   109   107   ar
     4   113   112    1
     5   112   110   ar
     6   107   106    1
     7   107   108   ar
     8   106   103    1
     9   102   103    1
    10    86    87    1
    11   110   108   ar
    12   100    99   ar
    13   103   104    1
    14    68    69    1
    15    98    99    1
    16    98    97    1
    17    99   101   ar
    18    87    88    1
    19    87    90    1
    20    95    96    2
    21    95    94    1
    22   196   195    2
    23    80    81    1
    24    88    89    2
    25    88    93   am
    26    70    69    1
    27    70    71    2
    28    69    72    1
    29    82    83    2
    30    82    81    1
    31    93    94    1
    32   104   105    2
    33   104   114   am
    34   194   193    1
    35   194   195    1
    36   194   197    1
    37    94    97    1
    38   195   200   am
    39   199   197    1
    40    81    84    1
    41    90    91    1
    42    90    92    1
    43   114   115    1
    44   198   197    1
    45    72    73    1
    46    84    85    1
    47   203   202    2
    48   202   201    1
    49   200   201    1
    50    62    61    2
    51   115   116    1
    52   115   118    1
    53   201   204    1
    54    73    74   ar
    55    73    75   ar
    56    67    65   am
    57    61    60    1
    58    74    76   ar
    59    49    48   ar
    60    49    47   ar
    61   116   117    2
    62    64    63    1
    63    64    65    1
    64    48    46   ar
    65   118   119    1
    66    63    60    1
    67    75    77   ar
    68    65    66    2
    69    60    59    1
    70   134   132   am
    71    47    45   ar
    72   204   206    1
    73   204   205    1
    74   188   187    2
    75   185   186    1
    76    76    78   ar
    77   131   132    1
    78   131   130    1
    79   187   186    1
    80    46    43   ar
    81   132   133    2
    82   119   121   ar
    83   119   120   ar
    84    77    78   ar
    85   121   123   ar
    86   186   189    1
    87   130   127    1
    88    78    79    1
    89    45    43   ar
    90    45    44   ar
    91   179   178    1
    92    43    41   ar
    93   120   122   ar
    94    39    38    2
    95   123   124   ar
    96   191   190    2
    97   189   190    1
    98    44    42   ar
    99   127   126    1
   100   127   128    1
   101    30    29    2
   102   178   176   ar
   103   178   177   ar
   104   176   174   ar
   105    41    42   ar
   106    41    40    1
   107    53    52    2
   108   190   192   am
   109    38    37    1
   110    38    50   am
   111   128   129    2
   112    37    40    1
   113    37    36    1
   114   122   124   ar
   115   124   125    1
   116   183   182    2
   117    52    51    1
   118   184   181    1
   119    29    36   am
   120    29    28    1
   121   182   181    1
   122   177   175   ar
   123   174   173   ar
   124    50    51    1
   125   148   150    1
   126   148   147    1
   127    51    54    1
   128   181   180    1
   129    16    15   ar
   130    31    28    1
   131    31    32    1
   132    28    27    1
   133    33    32    1
   134    33    34    1
   135   175   173   ar
   136   173   172    1
   137    35    34    1
   138   171   170    2
   139   147   149    1
   140   147   144    1
   141    15    17   ar
   142    15    14    1
   143    54    55    1
   144    12    11    2
   145   142   140    1
   146    55    56    1
   147   170   169    1
   148    21    20    2
   149   172   169    1
   150    13    14    1
   151    13    10    1
   152   143   144    1
   153   143   137   am
   154    11    10    1
   155    11    18   am
   156   144   145    1
   157   139   140    1
   158   139   141    1
   159   139   136    1
   160   135   136    1
   161   169   168    1
   162    10     9    1
   163    20    19    1
   164    56    57    2
   165    56    58   am
   166   136   137    1
   167    19    18    1
   168    19    22    1
   169   137   138    2
   170   145   146    2
   171   162   161    2
   172    26    24   ar
   173   168   161   am
   174    25    24   ar
   175    24    23    1
   176   161   160    1
   177    22    23    1
   178     4     3    2
   179     7     6    1
   180   160   163    1
   181   160   159    1
   182     6     8    1
   183     6     5    1
   184   163   164    1
   185     2     3    1
   186     2     5    1
   187     2     1    1
   188   154   153    2
   189   153   152    1
   190   157   156    1
   191   164   165    1
   192   156   158    1
   193   156   155    1
   194   165   166    1
   195   155   152    1
   196   152   151    1
   197   166   167    1
