@<TRIPOS>MOLECULE
tmp/3braA00.pdb
 100 94 0 0 0
SMALL
GASTEIGER

@<TRIPOS>ATOM
      1  N        -22.1750   33.5550   87.3350 N.3    35  LEU35      -0.1245
      2  CA       -21.4360   34.7980   87.1780 C.3    35  LEU35       0.1561
      3  C        -19.9610   34.5200   86.8940 C.2    35  LEU35       0.2260
      4  O        -19.3120   33.7790   87.6240 O.2    35  LEU35      -0.2867
      5  CB       -21.5680   35.6440   88.4480 C.3    35  LEU35       0.0270
      6  CG       -20.9240   37.0320   88.4450 C.3    35  LEU35       0.0019
      7  CD1      -21.6940   38.0080   87.5540 C.3    35  LEU35       0.0001
      8  CD2      -20.8110   37.5960   89.8640 C.3    35  LEU35       0.0001
      9  N        -16.3260   35.6890   87.0000 N.3    37  ASP37      -0.1239
     10  CA       -15.5640   36.6330   87.8180 C.3    37  ASP37       0.1674
     11  C        -14.0530   36.3630   87.7650 C.2    37  ASP37       0.2266
     12  O        -13.5810   35.3960   88.3730 O.2    37  ASP37      -0.2867
     13  CB       -16.0660   36.5670   89.2740 C.3    37  ASP37       0.1410
     14  CG       -15.4810   37.6720   90.1650 C.2    37  ASP37       0.3668
     15  OD1      -14.9140   38.6530   89.6330 O.co2  37  ASP37      -0.2456
     16  OD2      -15.5500   37.6480   91.4160 O.co2  37  ASP37      -0.2456
     17  N        -11.9390   38.2260   89.2020 N.3    39  GLY39      -0.1210
     18  CA       -11.3900   38.8130   90.4150 C.3    39  GLY39       0.1956
     19  C        -11.5690   37.9540   91.6530 C.2    39  GLY39       0.2612
     20  O        -11.4550   38.4530   92.7680 O.2    39  GLY39      -0.2717
     21  N        -11.8680   36.6730   91.4680 N.am   40  SER40      -0.1952
     22  CA       -11.9970   35.7380   92.5870 C.3    40  SER40       0.1924
     23  C        -11.6930   34.3210   92.1230 C.2    40  SER40       0.2314
     24  O        -11.4900   34.0930   90.9250 O.2    40  SER40      -0.2863
     25  CB       -13.3670   35.8610   93.2700 C.3    40  SER40       0.2116
     26  OG       -14.4390   35.5710   92.3900 O.3    40  SER40      -0.2180
     27  N        -17.6720   40.3170  102.9610 N.3    76  TYR76      -0.1241
     28  CA       -17.5390   41.4880  102.1060 C.3    76  TYR76       0.1605
     29  C        -17.7900   42.6860  103.0090 C.2    76  TYR76       0.2264
     30  O        -18.3000   42.5170  104.1300 O.2    76  TYR76      -0.2867
     31  CB       -18.5900   41.4490  100.9920 C.3    76  TYR76       0.0534
     32  CG       -18.4270   40.3310   99.9870 C.ar   76  TYR76      -0.0201
     33  CD1      -17.4280   40.3780   99.0100 C.ar   76  TYR76      -0.0009
     34  CD2      -19.2920   39.2390   99.9930 C.ar   76  TYR76      -0.0009
     35  CE1      -17.2870   39.3480   98.0700 C.ar   76  TYR76       0.0417
     36  CE2      -19.1640   38.2040   99.0610 C.ar   76  TYR76       0.0417
     37  CZ       -18.1620   38.2640   98.1040 C.ar   76  TYR76       0.1957
     38  OH       -18.0370   37.2380   97.1890 O.3    76  TYR76      -0.2866
     39  N        -26.6170   40.1170  100.9700 N.3   112  LYS112     -0.1231
     40  CA       -26.3210   41.1000   99.9150 C.3   112  LYS112      0.1693
     41  C        -25.4160   40.5260   98.8200 C.2   112  LYS112      0.2592
     42  O        -24.6010   41.2240   98.2300 O.2   112  LYS112     -0.2718
     43  CB       -25.7240   42.3780  100.5130 C.3   112  LYS112      0.0285
     44  CG       -26.6670   43.0570  101.4960 C.3   112  LYS112      0.0035
     45  CD       -26.0450   44.2710  102.1590 C.3   112  LYS112      0.0206
     46  CE       -27.0800   44.9710  103.0410 C.3   112  LYS112      0.1093
     47  NZ       -26.4620   46.0260  103.8720 N.3   112  LYS112     -0.1314
     48  N        -25.5750   39.2370   98.5630 N.am  113  PHE113     -0.1976
     49  CA       -24.7770   38.5540   97.5600 C.3   113  PHE113      0.1639
     50  C        -25.6220   38.3500   96.3120 C.2   113  PHE113      0.2290
     51  O        -25.2610   38.8020   95.2320 O.2   113  PHE113     -0.2864
     52  CB       -24.2640   37.2180   98.1100 C.3   113  PHE113      0.0560
     53  CG       -23.4320   36.4400   97.1290 C.ar  113  PHE113     -0.0200
     54  CD1      -22.1350   36.8500   96.8120 C.ar  113  PHE113     -0.0042
     55  CD2      -23.9470   35.3150   96.5100 C.ar  113  PHE113     -0.0042
     56  CE1      -21.3690   36.1470   95.9100 C.ar  113  PHE113     -0.0003
     57  CE2      -23.1870   34.6030   95.5890 C.ar  113  PHE113     -0.0003
     58  CZ       -21.8880   35.0170   95.2900 C.ar  113  PHE113     -0.0000
     59  N        -28.6720   39.0180   93.8200 N.3   115  ILE115     -0.1245
     60  CA       -29.3660   40.2500   93.4620 C.3   115  ILE115      0.1561
     61  C        -30.8370   39.9630   93.1580 C.2   115  ILE115      0.2260
     62  O        -31.1520   39.0510   92.3900 O.2   115  ILE115     -0.2867
     63  CB       -28.6610   40.9240   92.2660 C.3   115  ILE115      0.0252
     64  CG1      -27.2550   41.3890   92.6720 C.3   115  ILE115      0.0019
     65  CG2      -29.4950   42.0930   91.6960 C.3   115  ILE115      0.0019
     66  CD1      -26.3340   41.6470   91.4960 C.3   115  ILE115      0.0001
     67  N        -28.8200   34.9090   87.6330 N.3   120  TRP120     -0.1241
     68  CA       -27.7310   34.0220   88.0330 C.3   120  TRP120      0.1605
     69  C        -27.7950   33.5620   89.5030 C.2   120  TRP120      0.2264
     70  O        -28.3690   34.2440   90.3580 O.2   120  TRP120     -0.2867
     71  CB       -26.3590   34.6110   87.6640 C.3   120  TRP120      0.0550
     72  CG       -26.0130   35.9400   88.3000 C.ar  120  TRP120      0.0003
     73  CD1      -26.0640   37.1710   87.7090 C.ar  120  TRP120      0.0946
     74  CD2      -25.5160   36.1590   89.6310 C.ar  120  TRP120      0.0152
     75  NE1      -25.6460   38.1430   88.5900 N.ar  120  TRP120     -0.2442
     76  CE2      -25.3030   37.5480   89.7780 C.ar  120  TRP120      0.0810
     77  CE3      -25.2280   35.3180   90.7180 C.ar  120  TRP120      0.0012
     78  CZ2      -24.8270   38.1140   90.9720 C.ar  120  TRP120      0.0191
     79  CZ3      -24.7620   35.8750   91.8950 C.ar  120  TRP120      0.0001
     80  CH2      -24.5640   37.2580   92.0150 C.ar  120  TRP120      0.0015
     81  N        -21.2920   31.7860   91.3850 N.3   123  ILE123     -0.1245
     82  CA       -20.1370   32.5410   90.9220 C.3   123  ILE123      0.1561
     83  C        -18.9820   31.6150   90.5380 C.2   123  ILE123      0.2260
     84  O        -18.7050   30.6240   91.2220 O.2   123  ILE123     -0.2867
     85  CB       -19.7140   33.5970   91.9860 C.3   123  ILE123      0.0252
     86  CG1      -18.6070   34.5180   91.4390 C.3   123  ILE123      0.0019
     87  CG2      -19.3480   32.9280   93.3370 C.3   123  ILE123      0.0019
     88  CD1      -18.1700   35.6150   92.4130 C.3   123  ILE123      0.0001
     89  N        -10.7000   42.6320   86.3560 N.3   221  ASP221     -0.1239
     90  CA       -11.7920   41.9750   87.0890 C.3   221  ASP221      0.1674
     91  C        -13.1330   42.0820   86.3510 C.2   221  ASP221      0.2266
     92  O        -13.7100   43.1650   86.2280 O.2   221  ASP221     -0.2867
     93  CB       -11.9040   42.5550   88.5040 C.3   221  ASP221      0.1410
     94  CG       -13.0500   41.9440   89.3060 C.2   221  ASP221      0.3668
     95  OD1      -13.6220   40.9160   88.8710 O.co2 221  ASP221     -0.2456
     96  OD2      -13.4610   42.4370   90.3850 O.co2 221  ASP221     -0.2456
     97  N        -15.9300   40.8830   87.3470 N.3   223  GLY223     -0.1225
     98  CA       -17.0130   40.9850   88.3260 C.3   223  GLY223      0.1811
     99  C        -17.3320   42.3980   88.8160 C.2   223  GLY223      0.2280
    100  O        -18.3310   42.6170   89.5080 O.2   223  GLY223     -0.2866
@<TRIPOS>BOND
     1    92    91    2
     2    91    90    1
     3    89    90    1
     4     3     2    1
     5     3     4    2
     6     9    10    1
     7    90    93    1
     8     2     1    1
     9     2     5    1
    10    97    98    1
    11     7     6    1
    12    67    68    1
    13    71    68    1
    14    71    72    1
    15    73    72   ar
    16    73    75   ar
    17    11    10    1
    18    11    12    2
    19    10    13    1
    20    68    69    1
    21    72    74   ar
    22    98    99    1
    23     6     5    1
    24     6     8    1
    25    93    94    1
    26    75    76   ar
    27    99   100    2
    28    95    94   ar
    29    17    18    1
    30    13    14    1
    31    94    96   ar
    32    69    70    2
    33    74    76   ar
    34    74    77   ar
    35    15    14   ar
    36    76    78   ar
    37    14    16   ar
    38    18    19    1
    39    83    82    1
    40    83    84    2
    41    77    79   ar
    42    82    81    1
    43    82    85    1
    44    24    23    2
    45    78    80   ar
    46    86    85    1
    47    86    88    1
    48    21    19   am
    49    21    22    1
    50    66    64    1
    51    19    20    2
    52    65    63    1
    53    79    80   ar
    54    85    87    1
    55    23    22    1
    56    63    64    1
    57    63    60    1
    58    26    25    1
    59    62    61    2
    60    22    25    1
    61    61    60    1
    62    60    59    1
    63    51    50    2
    64    58    57   ar
    65    58    56   ar
    66    57    55   ar
    67    56    54   ar
    68    50    49    1
    69    55    53   ar
    70    54    53   ar
    71    53    52    1
    72    38    37    1
    73    49    52    1
    74    49    48    1
    75    35    37   ar
    76    35    33   ar
    77    37    36   ar
    78    42    41    2
    79    48    41   am
    80    41    40    1
    81    33    32   ar
    82    36    34   ar
    83    40    43    1
    84    40    39    1
    85    32    34   ar
    86    32    31    1
    87    43    44    1
    88    31    28    1
    89    44    45    1
    90    28    27    1
    91    28    29    1
    92    45    46    1
    93    29    30    2
    94    46    47    1
