@<TRIPOS>MOLECULE
tmp/3brbB00.pdb
 122 114 0 0 0
SMALL
GASTEIGER

@<TRIPOS>ATOM
      1  N         -9.7520  -18.6330  -14.2980 N.3    19  LEU19      -0.1231
      2  CA        -8.4880  -17.8900  -14.3380 C.3    19  LEU19       0.1693
      3  C         -8.6900  -16.5290  -14.9920 C.2    19  LEU19       0.2592
      4  O         -7.9590  -15.5800  -14.6880 O.2    19  LEU19      -0.2718
      5  CB        -7.3970  -18.6750  -15.0970 C.3    19  LEU19       0.0284
      6  CG        -7.1510  -20.1290  -14.6640 C.3    19  LEU19       0.0019
      7  CD1       -6.1340  -20.8710  -15.5400 C.3    19  LEU19       0.0001
      8  CD2       -6.7380  -20.1950  -13.1950 C.3    19  LEU19       0.0001
      9  N         -9.6650  -16.4510  -15.9030 N.am   20  GLY20      -0.1957
     10  CA       -10.0300  -15.2140  -16.5900 C.3    20  GLY20       0.1869
     11  C        -11.3960  -15.3410  -17.2500 C.2    20  GLY20       0.2309
     12  O        -11.8210  -16.4480  -17.5870 O.2    20  GLY20      -0.2863
     13  N        -11.7770  -18.8950  -19.0880 N.3    27  VAL27      -0.1245
     14  CA       -10.5710  -19.7330  -18.9330 C.3    27  VAL27       0.1561
     15  C        -10.5290  -20.3540  -17.5350 C.2    27  VAL27       0.2260
     16  O        -10.5560  -19.6350  -16.5460 O.2    27  VAL27      -0.2867
     17  CB        -9.2600  -18.9460  -19.1820 C.3    27  VAL27       0.0252
     18  CG1       -8.0340  -19.8380  -18.9680 C.3    27  VAL27       0.0019
     19  CG2       -9.2490  -18.3450  -20.5700 C.3    27  VAL27       0.0019
     20  N         -5.5190  -26.0620  -18.5110 N.3    43  ALA43      -0.1245
     21  CA        -6.2070  -24.7820  -18.6430 C.3    43  ALA43       0.1562
     22  C         -7.2430  -25.0160  -19.7340 C.2    43  ALA43       0.2260
     23  O         -6.9310  -25.5600  -20.7900 O.2    43  ALA43      -0.2867
     24  CB        -5.2630  -23.6950  -19.0730 C.3    43  ALA43       0.0290
     25  N        -10.2440  -23.3590  -22.1860 N.3    45  LYS45      -0.1245
     26  CA       -10.8460  -22.1550  -22.7410 C.3    45  LYS45       0.1561
     27  C        -12.1340  -22.5260  -23.4230 C.2    45  LYS45       0.2260
     28  O        -12.1760  -23.4550  -24.2200 O.2    45  LYS45      -0.2867
     29  CB        -9.9290  -21.4820  -23.7540 C.3    45  LYS45       0.0271
     30  CG        -8.6530  -20.8990  -23.1890 C.3    45  LYS45       0.0035
     31  CD        -8.1390  -19.7910  -24.1330 C.3    45  LYS45       0.0206
     32  CE        -6.8760  -19.1340  -23.5650 C.3    45  LYS45       0.1093
     33  NZ        -6.6100  -17.8300  -24.2140 N.3    45  LYS45      -0.1314
     34  N          3.0740  -24.3650  -27.5470 N.3    76  ILE76      -0.1245
     35  CA         2.1860  -25.0960  -26.6460 C.3    76  ILE76       0.1561
     36  C          1.3520  -26.1110  -27.4340 C.2    76  ILE76       0.2260
     37  O          0.9120  -25.8200  -28.5460 O.2    76  ILE76      -0.2867
     38  CB         1.2610  -24.1580  -25.8420 C.3    76  ILE76       0.0252
     39  CG1        0.7430  -24.8550  -24.5720 C.3    76  ILE76       0.0019
     40  CG2        0.0710  -23.6530  -26.6920 C.3    76  ILE76       0.0019
     41  CD1        0.1280  -23.8740  -23.5550 C.3    76  ILE76       0.0001
     42  N         -5.5610  -27.2770  -22.8640 N.3    97  LEU97      -0.1231
     43  CA        -4.1280  -27.0170  -22.9550 C.3    97  LEU97       0.1678
     44  C         -3.4580  -27.4150  -21.6430 C.2    97  LEU97       0.2434
     45  O         -4.0530  -27.3240  -20.5770 O.2    97  LEU97      -0.2733
     46  CB        -3.8910  -25.5260  -23.2100 C.3    97  LEU97       0.0284
     47  CG        -4.7250  -24.9620  -24.3790 C.3    97  LEU97       0.0019
     48  CD1       -5.2200  -23.5690  -24.1000 C.3    97  LEU97       0.0001
     49  CD2       -3.9320  -25.0570  -25.6880 C.3    97  LEU97       0.0001
     50  N         -2.1770  -27.7930  -21.7090 N.am   98  PRO98      -0.2718
     51  CA        -1.5080  -28.1070  -20.4530 C.3    98  PRO98       0.1535
     52  C         -1.4700  -26.8620  -19.5940 C.2    98  PRO98       0.2599
     53  O         -1.3220  -25.7520  -20.1160 O.2    98  PRO98      -0.2715
     54  CB        -0.0760  -28.4810  -20.8880 C.3    98  PRO98       0.0310
     55  CG         0.0810  -27.9200  -22.2530 C.3    98  PRO98       0.0237
     56  CD        -1.3140  -27.9380  -22.8820 C.3    98  PRO98       0.0939
     57  N         -1.5920  -27.0250  -18.2920 N.am   99  PHE99      -0.1960
     58  CA        -1.4820  -25.8830  -17.3900 C.3    99  PHE99       0.1771
     59  C          0.0040  -25.6350  -17.1090 C.2    99  PHE99       0.2619
     60  O          0.7350  -26.5700  -16.7870 O.2    99  PHE99      -0.2715
     61  CB        -2.2170  -26.1700  -16.0850 C.3    99  PHE99       0.0574
     62  CG        -2.2120  -25.0140  -15.1160 C.ar   99  PHE99      -0.0200
     63  CD1       -3.2010  -24.0530  -15.1690 C.ar   99  PHE99      -0.0042
     64  CD2       -1.2400  -24.9140  -14.1410 C.ar   99  PHE99      -0.0042
     65  CE1       -3.2090  -22.9660  -14.2890 C.ar   99  PHE99      -0.0003
     66  CE2       -1.2410  -23.8450  -13.2500 C.ar   99  PHE99      -0.0003
     67  CZ        -2.2200  -22.8670  -13.3320 C.ar   99  PHE99      -0.0000
     68  N          0.4140  -24.3720  -17.1700 N.am  100  MET100     -0.1977
     69  CA         1.8130  -23.9460  -16.9340 C.3   100  MET100      0.1605
     70  C          1.8880  -23.2800  -15.5650 C.2   100  MET100      0.2287
     71  O          1.4350  -22.1530  -15.4000 O.2   100  MET100     -0.2864
     72  CB         2.2270  -22.9370  -18.0180 C.3   100  MET100      0.0413
     73  CG         1.9800  -23.4230  -19.4280 C.3   100  MET100      0.0598
     74  SD         3.2970  -24.5690  -19.8650 S.3   100  MET100     -0.1393
     75  CE         2.5940  -25.4330  -21.2610 C.3   100  MET100      0.0692
     76  N          3.1270  -19.7950  -15.3450 N.3   103  GLY103     -0.1210
     77  CA         2.2580  -18.7240  -15.8640 C.3   103  GLY103      0.1956
     78  C          2.8820  -17.9860  -17.0430 C.2   103  GLY103      0.2611
     79  O          3.7540  -18.5180  -17.7300 O.2   103  GLY103     -0.2717
     80  N          2.4070  -16.7730  -17.3090 N.am  104  ASP104     -0.1973
     81  CA         2.7790  -16.0650  -18.5180 C.3   104  ASP104      0.1709
     82  C          4.0750  -15.2540  -18.3460 C.2   104  ASP104      0.2293
     83  O          4.4460  -14.8480  -17.2210 O.2   104  ASP104     -0.2864
     84  CB         1.6360  -15.2060  -19.0070 C.3   104  ASP104      0.1436
     85  CG         1.4160  -13.9990  -18.1320 C.2   104  ASP104      0.3671
     86  OD1        0.7400  -14.1170  -17.0990 O.co2 104  ASP104     -0.2456
     87  OD2        1.9620  -12.9410  -18.4720 O.co2 104  ASP104     -0.2456
     88  N          2.0810  -11.6570  -22.9140 N.3   153  ARG153     -0.1231
     89  CA         1.0880  -12.3000  -22.0470 C.3   153  ARG153      0.1694
     90  C          0.4570  -13.5630  -22.6780 C.2   153  ARG153      0.2592
     91  O         -0.4680  -14.1690  -22.0970 O.2   153  ARG153     -0.2718
     92  CB        -0.0120  -11.2900  -21.6480 C.3   153  ARG153      0.0321
     93  CG        -0.5970  -10.6050  -22.8600 C.3   153  ARG153      0.0489
     94  CD        -1.9680   -9.9210  -22.6900 C.3   153  ARG153      0.2205
     95  NE        -2.4580   -9.6190  -24.0430 N.pl3 153  ARG153     -0.0865
     96  CZ        -1.8940   -8.7370  -24.8810 C.cat 153  ARG153      0.5346
     97  NH1       -0.8420   -7.9980  -24.5070 N.pl3 153  ARG153      0.1354
     98  NH2       -2.3810   -8.5820  -26.0980 N.pl3 153  ARG153      0.1354
     99  N          0.9420  -13.9290  -23.8680 N.am  154  ASN154     -0.1974
    100  CA         0.4960  -15.1530  -24.5690 C.3   154  ASN154      0.1688
    101  C          1.6450  -16.0600  -24.8330 C.2   154  ASN154      0.2292
    102  O          1.5690  -16.9580  -25.6620 O.2   154  ASN154     -0.2864
    103  CB        -0.2570  -14.8180  -25.8620 C.3   154  ASN154      0.1181
    104  CG        -1.6440  -14.2940  -25.5860 C.2   154  ASN154      0.2629
    105  OD1       -2.2330  -13.5620  -26.4070 O.2   154  ASN154     -0.2716
    106  ND2       -2.1880  -14.6330  -24.4220 N.am  154  ASN154     -0.0877
    107  N          4.1910  -18.5710  -22.6430 N.3   156  MET156     -0.1245
    108  CA         3.9680  -19.2520  -21.3760 C.3   156  MET156      0.1570
    109  C          5.2680  -19.8120  -20.9050 C.2   156  MET156      0.2261
    110  O          6.1400  -20.1480  -21.7380 O.2   156  MET156     -0.2867
    111  CB         2.9140  -20.3620  -21.5180 C.3   156  MET156      0.0387
    112  CG         1.4880  -19.8250  -21.8710 C.3   156  MET156      0.0595
    113  SD         0.8420  -18.5920  -20.7170 S.3   156  MET156     -0.1393
    114  CE         0.7440  -19.5240  -19.2750 C.3   156  MET156      0.0692
    115  N         -1.8720  -19.4490  -27.2940 N.3   167  ASP167     -0.1239
    116  CA        -3.0750  -18.6370  -27.5920 C.3   167  ASP167      0.1674
    117  C         -3.2580  -18.2140  -29.0480 C.2   167  ASP167      0.2266
    118  O         -3.8740  -17.1870  -29.3700 O.2   167  ASP167     -0.2867
    119  CB        -3.2020  -17.4730  -26.6120 C.3   167  ASP167      0.1410
    120  CG        -3.6650  -17.9450  -25.2260 C.2   167  ASP167      0.3668
    121  OD1       -3.7380  -19.1720  -24.9530 O.co2 167  ASP167     -0.2456
    122  OD2       -3.9770  -17.0990  -24.3890 O.co2 167  ASP167     -0.2456
@<TRIPOS>BOND
     1   118   117    2
     2   117   116    1
     3    37    36    2
     4   116   115    1
     5   116   119    1
     6    34    35    1
     7    36    35    1
     8    40    38    1
     9    35    38    1
    10   119   120    1
    11   105   104    2
    12    98    96    1
    13   103   104    1
    14   103   100    1
    15    38    39    1
    16    49    47    1
    17   102   101    2
    18   104   106   am
    19   120   121   ar
    20   120   122   ar
    21    96    97    1
    22    96    95    2
    23   101   100    1
    24    39    41    1
    25   100    99    1
    26    47    48    1
    27    47    46    1
    28    28    27    2
    29    33    32    1
    30    31    32    1
    31    31    30    1
    32    95    94    1
    33    99    90   am
    34    29    30    1
    35    29    26    1
    36    27    26    1
    37    46    43    1
    38    43    42    1
    39    43    44    1
    40    88    89    1
    41    56    55    1
    42    56    50    1
    43    93    94    1
    44    93    92    1
    45    26    25    1
    46    90    91    2
    47    90    89    1
    48   107   108    1
    49    55    54    1
    50    89    92    1
    51   112   111    1
    52   112   113    1
    53   110   109    2
    54    50    44   am
    55    50    51    1
    56    44    45    2
    57   111   108    1
    58   108   109    1
    59    75    74    1
    60    54    51    1
    61    23    22    2
    62   113   114    1
    63    19    17    1
    64    51    52    1
    65    53    52    2
    66    74    73    1
    67    22    21    1
    68    52    57   am
    69    73    72    1
    70    17    18    1
    71    17    14    1
    72    13    14    1
    73    24    21    1
    74    84    81    1
    75    84    85    1
    76    14    15    1
    77    21    20    1
    78    81    82    1
    79    81    80    1
    80    87    85   ar
    81    82    83    2
    82    57    58    1
    83    85    86   ar
    84    72    69    1
    85    79    78    2
    86    12    11    2
    87    15    16    2
    88    58    59    1
    89    58    61    1
    90    80    78   am
    91    11    10    1
    92    68    59   am
    93    68    69    1
    94    59    60    2
    95    78    77    1
    96    69    70    1
    97    10     9    1
    98    61    62    1
    99     9     3   am
   100    77    76    1
   101    70    71    2
   102     7     6    1
   103    63    62   ar
   104    63    65   ar
   105    62    64   ar
   106     5     6    1
   107     5     2    1
   108     3     4    2
   109     3     2    1
   110     6     8    1
   111     2     1    1
   112    65    67   ar
   113    64    66   ar
   114    67    66   ar
