@<TRIPOS>MOLECULE
tmp/3breB00.pdb
 96 91 0 0 0
SMALL
GASTEIGER

@<TRIPOS>ATOM
      1  N        -26.6220   47.5710    1.8850 N.3   227  GLY227     -0.1210
      2  CA       -27.9490   47.0720    1.5770 C.3   227  GLY227      0.1956
      3  C        -28.3560   45.8640    2.4130 C.2   227  GLY227      0.2612
      4  O        -29.5290   45.4990    2.4490 O.2   227  GLY227     -0.2717
      5  N        -27.3960   45.2310    3.0770 N.am  228  CYS228     -0.1956
      6  CA       -27.7040   44.0750    3.9110 C.3   228  CYS228      0.1843
      7  C        -26.9410   44.2310    5.2080 C.2   228  CYS228      0.2626
      8  O        -25.7310   44.4060    5.2010 O.2   228  CYS228     -0.2714
      9  CB       -27.3130   42.7660    3.2040 C.3   228  CYS228      0.0997
     10  SG       -25.5490   42.5570    2.8340 S.3   228  CYS228     -0.0797
     11  N        -27.6490   44.1660    6.3270 N.am  229  SER229     -0.1936
     12  CA       -26.9890   44.3460    7.6060 C.3   229  SER229      0.2055
     13  C        -27.1100   43.2200    8.6340 C.2   229  SER229      0.2642
     14  O        -26.6650   43.3640    9.7750 O.2   229  SER229     -0.2714
     15  CB       -27.4210   45.6860    8.2140 C.3   229  SER229      0.2130
     16  OG       -28.7730   45.9800    7.8980 O.3   229  SER229     -0.2179
     17  N        -27.6750   42.0830    8.2480 N.am  230  ARG230     -0.1977
     18  CA       -27.7570   40.9770    9.2050 C.3   230  ARG230      0.1597
     19  C        -26.4040   40.2720    9.3160 C.2   230  ARG230      0.2287
     20  O        -25.6780   40.1450    8.3280 O.2   230  ARG230     -0.2864
     21  CB       -28.8430   39.9860    8.8030 C.3   230  ARG230      0.0334
     22  CG       -30.2220   40.5710    8.9420 C.3   230  ARG230      0.0492
     23  CD       -31.3280   39.5990    8.6080 C.3   230  ARG230      0.2205
     24  NE       -32.5990   40.3080    8.6730 N.pl3 230  ARG230     -0.0865
     25  CZ       -33.7760   39.7740    8.3900 C.cat 230  ARG230      0.5346
     26  NH1      -33.8500   38.4990    8.0190 N.pl3 230  ARG230      0.1354
     27  NH2      -34.8720   40.5260    8.4730 N.pl3 230  ARG230      0.1354
     28  N        -25.7470   37.9310    6.6970 N.3   233  ASP233     -0.1239
     29  CA       -25.8100   38.3400    5.3070 C.3   233  ASP233      0.1674
     30  C        -24.3550   38.3710    4.8100 C.2   233  ASP233      0.2266
     31  O        -23.4170   38.4280    5.6250 O.2   233  ASP233     -0.2867
     32  CB       -26.4460   39.7300    5.1590 C.3   233  ASP233      0.1410
     33  CG       -27.9620   39.7260    5.3940 C.2   233  ASP233      0.3668
     34  OD1      -28.6250   38.7170    5.0380 O.co2 233  ASP233     -0.2456
     35  OD2      -28.4800   40.7500    5.9130 O.co2 233  ASP233     -0.2456
     36  N        -28.7780   36.4280    1.0360 N.3   247  LEU247     -0.1231
     37  CA       -29.5720   36.7650    2.2120 C.3   247  LEU247      0.1678
     38  C        -30.2720   35.5300    2.7940 C.2   247  LEU247      0.2434
     39  O        -31.2430   35.0280    2.2350 O.2   247  LEU247     -0.2733
     40  CB       -30.6020   37.8450    1.8330 C.3   247  LEU247      0.0284
     41  CG       -30.1460   39.0810    1.0210 C.3   247  LEU247      0.0019
     42  CD1      -31.3530   39.8040    0.4520 C.3   247  LEU247      0.0001
     43  CD2      -29.3460   40.0280    1.8810 C.3   247  LEU247      0.0001
     44  N        -29.7630   35.0010    3.9110 N.am  248  PRO248     -0.2718
     45  CA       -30.4270   33.8240    4.4870 C.3   248  PRO248      0.1535
     46  C        -31.7690   34.2120    5.1440 C.2   248  PRO248      0.2599
     47  O        -31.9530   35.3720    5.5280 O.2   248  PRO248     -0.2715
     48  CB       -29.4070   33.3230    5.5140 C.3   248  PRO248      0.0310
     49  CG       -28.1000   33.7570    4.9360 C.3   248  PRO248      0.0237
     50  CD       -28.4220   35.1750    4.4940 C.3   248  PRO248      0.0939
     51  N        -32.6860   33.2440    5.2520 N.am  249  GLY249     -0.1941
     52  CA       -33.9930   33.4630    5.8720 C.3   249  GLY249      0.2014
     53  C        -34.7360   34.7000    5.3900 C.2   249  GLY249      0.2640
     54  O        -35.3980   35.4010    6.1680 O.2   249  GLY249     -0.2714
     55  N        -34.6190   34.9640    4.0930 N.am  250  THR250     -0.1936
     56  CA       -35.2350   36.1200    3.4740 C.3   250  THR250      0.2028
     57  C        -36.1790   35.6740    2.3680 C.2   250  THR250      0.2642
     58  O        -35.8100   34.8600    1.4970 O.2   250  THR250     -0.2714
     59  CB       -34.1430   37.0640    2.8920 C.3   250  THR250      0.1808
     60  OG1      -33.2130   37.4020    3.9310 O.3   250  THR250     -0.2208
     61  CG2      -34.7530   38.3360    2.3330 C.3   250  THR250      0.0379
     62  N        -37.3960   36.2220    2.4260 N.am  251  SER251     -0.1949
     63  CA       -38.4720   35.9470    1.4760 C.3   251  SER251      0.1924
     64  C        -38.2720   36.7200    0.1610 C.2   251  SER251      0.2314
     65  O        -37.4550   37.6390    0.0920 O.2   251  SER251     -0.2863
     66  CB       -39.7990   36.3910    2.0880 C.3   251  SER251      0.2116
     67  OG       -39.8350   37.8140    2.1990 O.3   251  SER251     -0.2180
     68  N        -38.6640   40.3850    0.6980 N.3   254  GLY254     -0.1225
     69  CA       -37.5400   41.0240    1.3600 C.3   254  GLY254      0.1811
     70  C        -36.3660   41.1860    0.4160 C.2   254  GLY254      0.2280
     71  O        -35.7470   42.2490    0.3450 O.2   254  GLY254     -0.2866
     72  N        -36.9390   43.8050   -1.9040 N.3   257  LEU257     -0.1231
     73  CA       -36.9400   45.0610   -1.1880 C.3   257  LEU257      0.1693
     74  C        -35.4780   45.5220   -1.0730 C.2   257  LEU257      0.2591
     75  O        -35.1550   46.6780   -1.3800 O.2   257  LEU257     -0.2718
     76  CB       -37.5420   44.9050    0.2010 C.3   257  LEU257      0.0284
     77  CG       -37.3570   46.2260    0.9410 C.3   257  LEU257      0.0019
     78  CD1      -38.4790   47.1810    0.5290 C.3   257  LEU257      0.0001
     79  CD2      -37.3200   45.9780    2.4510 C.3   257  LEU257      0.0001
     80  N        -34.5950   44.6190   -0.6380 N.am  258  LEU258     -0.1980
     81  CA       -33.1770   44.9630   -0.5140 C.3   258  LEU258      0.1596
     82  C        -32.5480   45.1940   -1.8970 C.2   258  LEU258      0.2287
     83  O        -31.6520   46.0100   -2.0270 O.2   258  LEU258     -0.2864
     84  CB       -32.4040   43.8740    0.2520 C.3   258  LEU258      0.0297
     85  CG       -32.7460   43.6030    1.7320 C.3   258  LEU258      0.0022
     86  CD1      -31.7190   42.6520    2.3320 C.3   258  LEU258      0.0001
     87  CD2      -32.7600   44.9020    2.5260 C.3   258  LEU258      0.0001
     88  N        -33.0380   48.7590   -2.6700 N.3   261  LYS261     -0.1245
     89  CA       -32.2580   49.7050   -1.8690 C.3   261  LYS261      0.1561
     90  C        -30.9240   49.8880   -2.5560 C.2   261  LYS261      0.2260
     91  O        -30.3560   51.0020   -2.5640 O.2   261  LYS261     -0.2867
     92  CB       -31.9730   49.1960   -0.4450 C.3   261  LYS261      0.0271
     93  CG       -33.1930   49.0400    0.4260 C.3   261  LYS261      0.0035
     94  CD       -32.8480   48.7990    1.9090 C.3   261  LYS261      0.0206
     95  CE       -34.1410   48.6130    2.7450 C.3   261  LYS261      0.1093
     96  NZ       -35.1410   49.7370    2.5460 N.3   261  LYS261     -0.1314
@<TRIPOS>BOND
     1    88    89    1
     2    91    90    2
     3    90    89    1
     4    83    82    2
     5    72    73    1
     6    82    81    1
     7    89    92    1
     8    75    74    2
     9    73    74    1
    10    73    76    1
    11    74    80   am
    12    80    81    1
    13    81    84    1
    14    92    93    1
    15    65    64    2
    16    64    63    1
    17    76    77    1
    18    84    85    1
    19    71    70    2
    20    70    69    1
    21    93    94    1
    22    42    41    1
    23    78    77    1
    24    68    69    1
    25    77    79    1
    26    41    40    1
    27    41    43    1
    28    36    37    1
    29    63    66    1
    30    63    62    1
    31    58    57    2
    32     2     1    1
    33     2     3    1
    34    85    86    1
    35    85    87    1
    36    40    37    1
    37    94    95    1
    38    66    67    1
    39    37    38    1
    40    39    38    2
    41    61    59    1
    42    57    62   am
    43    57    56    1
    44     3     4    2
    45     3     5   am
    46    96    95    1
    47    38    44   am
    48    10     9    1
    49    59    56    1
    50    59    60    1
    51     5     6    1
    52     9     6    1
    53    56    55    1
    54     6     7    1
    55    44    45    1
    56    44    50    1
    57    55    53   am
    58    45    46    1
    59    45    48    1
    60    50    49    1
    61    30    29    1
    62    30    31    2
    63    49    48    1
    64    34    33   ar
    65    46    51   am
    66    46    47    2
    67    32    29    1
    68    32    33    1
    69     8     7    2
    70     7    11   am
    71    51    52    1
    72    29    28    1
    73    53    52    1
    74    53    54    2
    75    33    35   ar
    76    11    12    1
    77    12    15    1
    78    12    13    1
    79    16    15    1
    80    26    25    1
    81    17    13   am
    82    17    18    1
    83    20    19    2
    84    25    27    1
    85    25    24    2
    86    23    24    1
    87    23    22    1
    88    13    14    2
    89    21    22    1
    90    21    18    1
    91    18    19    1
