@<TRIPOS>MOLECULE
tmp/3brmB00.pdb
 106 99 0 0 0
SMALL
GASTEIGER

@<TRIPOS>ATOM
      1  N         53.6800    8.6150   29.1530 N.3    25  TYR25      -0.1227
      2  CA        54.1510    7.6900   28.0990 C.3    25  TYR25       0.1736
      3  C         55.4920    8.1020   27.4450 C.2    25  TYR25       0.2595
      4  O         56.1130    7.3330   26.7010 O.2    25  TYR25      -0.2718
      5  CB        53.0430    7.4600   27.0480 C.3    25  TYR25       0.0548
      6  CG        52.7810    8.6270   26.1050 C.ar   25  TYR25      -0.0200
      7  CD1       51.9540    9.6930   26.4810 C.ar   25  TYR25      -0.0009
      8  CD2       53.3590    8.6580   24.8310 C.ar   25  TYR25      -0.0009
      9  CE1       51.7180   10.7660   25.6080 C.ar   25  TYR25       0.0417
     10  CE2       53.1350    9.7280   23.9550 C.ar   25  TYR25       0.0417
     11  CZ        52.3120   10.7730   24.3450 C.ar   25  TYR25       0.1957
     12  OH        52.0890   11.8150   23.4720 O.3    25  TYR25      -0.2866
     13  N         55.8880    9.3430   27.7090 N.am   26  ILE26      -0.1980
     14  CA        57.2400    9.8430   27.4930 C.3    26  ILE26       0.1595
     15  C         57.7540   10.1000   28.9230 C.2    26  ILE26       0.2287
     16  O         57.2960   11.0440   29.5710 O.2    26  ILE26      -0.2864
     17  CB        57.2260   11.1600   26.6430 C.3    26  ILE26       0.0276
     18  CG1       56.3260   11.0000   25.4030 C.3    26  ILE26       0.0022
     19  CG2       58.6570   11.6240   26.2900 C.3    26  ILE26       0.0022
     20  CD1       55.7530   12.3160   24.8470 C.3    26  ILE26       0.0001
     21  N         56.4000   19.5390   21.4580 N.3    59  GLN59      -0.1231
     22  CA        55.5720   18.3870   21.1990 C.3    59  GLN59       0.1698
     23  C         54.7030   18.7290   19.9860 C.2    59  GLN59       0.2592
     24  O         55.2140   19.2870   19.0050 O.2    59  GLN59      -0.2718
     25  CB        54.7690   17.9610   22.4500 C.3    59  GLN59       0.0381
     26  CG        55.6270   17.4390   23.6270 C.3    59  GLN59       0.0905
     27  CD        56.6020   16.3230   23.2340 C.2    59  GLN59       0.2608
     28  OE1       56.3240   15.5490   22.3080 O.2    59  GLN59      -0.2717
     29  NE2       57.7740   16.2600   23.9060 N.am   59  GLN59      -0.0878
     30  N         53.4090   18.4240   20.0680 N.am   60  SER60      -0.1952
     31  CA        52.4740   18.6250   18.9730 C.3    60  SER60       0.1924
     32  C         52.3420   20.0410   18.4290 C.2    60  SER60       0.2314
     33  O         52.0770   20.2250   17.2330 O.2    60  SER60      -0.2863
     34  CB        51.1090   18.0360   19.3290 C.3    60  SER60       0.2116
     35  OG        51.2330   16.6200   19.4460 O.3    60  SER60      -0.2180
     36  N         54.0690   20.2970   15.0550 N.3    63  LYS63      -0.1245
     37  CA        53.2230   19.9450   13.9190 C.3    63  LYS63       0.1561
     38  C         52.7790   21.1040   13.0140 C.2    63  LYS63       0.2260
     39  O         52.7760   20.9430   11.8040 O.2    63  LYS63      -0.2867
     40  CB        52.0120   19.1390   14.3910 C.3    63  LYS63       0.0271
     41  CG        52.3770   17.7350   14.9290 C.3    63  LYS63       0.0035
     42  CD        51.1440   16.9930   15.3830 C.3    63  LYS63       0.0206
     43  CE        51.4720   15.7960   16.2850 C.3    63  LYS63       0.1093
     44  NZ        50.2220   15.1160   16.7500 N.3    63  LYS63      -0.1314
     45  N         49.3080   12.4700   14.6830 N.3    92  ASN92      -0.1240
     46  CA        50.5980   11.7870   14.4460 C.3    92  ASN92       0.1653
     47  C         50.7770   11.1980   13.0610 C.2    92  ASN92       0.2266
     48  O         51.8400   11.2840   12.4870 O.2    92  ASN92      -0.2867
     49  CB        50.8610   10.6830   15.4580 C.3    92  ASN92       0.1155
     50  CG        50.9580   11.2050   16.8850 C.2    92  ASN92       0.2627
     51  OD1       50.4800   12.2970   17.2020 O.2    92  ASN92      -0.2716
     52  ND2       51.5680   10.4260   17.7490 N.am   92  ASN92      -0.0877
     53  N         61.8620    9.3260   24.1410 N.3   135  GLU135     -0.1245
     54  CA        60.8650    9.0640   23.0910 C.3   135  GLU135      0.1567
     55  C         61.3370    8.0460   22.0440 C.2   135  GLU135      0.2260
     56  O         60.5990    7.1700   21.6670 O.2   135  GLU135     -0.2867
     57  CB        60.3990   10.3590   22.4040 C.3   135  GLU135      0.0388
     58  CG        59.1430   10.9850   23.0120 C.3   135  GLU135      0.1160
     59  CD        57.9900   11.2580   22.0010 C.2   135  GLU135      0.3649
     60  OE1       57.9720   12.3450   21.3710 O.co2 135  GLU135     -0.2457
     61  OE2       57.0600   10.4100   21.8810 O.co2 135  GLU135     -0.2457
     62  N         54.3350    5.0870   17.1880 N.3   142  ASN142     -0.1240
     63  CA        54.7640    5.8770   16.0400 C.3   142  ASN142      0.1653
     64  C         55.4650    5.0760   14.9340 C.2   142  ASN142      0.2266
     65  O         55.1680    5.2890   13.7390 O.2   142  ASN142     -0.2867
     66  CB        55.5930    7.0950   16.4810 C.3   142  ASN142      0.1155
     67  CG        54.7160    8.2390   17.0020 C.2   142  ASN142      0.2627
     68  OD1       53.5460    8.4250   16.5790 O.2   142  ASN142     -0.2716
     69  ND2       55.2740    9.0090   17.9200 N.am  142  ASN142     -0.0877
     70  N         60.6180   13.5520   13.1670 N.3   166  TYR166     -0.1241
     71  CA        59.3810   13.7780   13.8940 C.3   166  TYR166      0.1605
     72  C         59.6410   13.8780   15.3840 C.2   166  TYR166      0.2264
     73  O         59.1700   14.7790   16.0240 O.2   166  TYR166     -0.2867
     74  CB        58.3820   12.6790   13.5710 C.3   166  TYR166      0.0534
     75  CG        57.1460   12.7850   14.4080 C.ar  166  TYR166     -0.0201
     76  CD1       56.1580   13.7410   14.1160 C.ar  166  TYR166     -0.0009
     77  CD2       57.0030   11.9880   15.5410 C.ar  166  TYR166     -0.0009
     78  CE1       55.0210   13.8670   14.9400 C.ar  166  TYR166      0.0417
     79  CE2       55.8880   12.0930   16.3650 C.ar  166  TYR166      0.0417
     80  CZ        54.8820   13.0080   16.0480 C.ar  166  TYR166      0.1957
     81  OH        53.7910   13.1070   16.8810 O.3   166  TYR166     -0.2866
     82  N         59.4630   17.4530   17.8380 N.3   170  CYS170     -0.1235
     83  CA        58.6640   17.4130   19.0590 C.3   170  CYS170      0.1677
     84  C         59.4850   17.8290   20.2610 C.2   170  CYS170      0.2270
     85  O         58.9460   18.2980   21.2720 O.2   170  CYS170     -0.2867
     86  CB        58.1230   16.0090   19.2940 C.3   170  CYS170      0.0956
     87  SG        56.7040   15.5980   18.2770 S.3   170  CYS170     -0.0801
     88  N         43.1680   18.2680   19.7440 N.3   215  TYR215     -0.1241
     89  CA        42.8640   16.8550   19.6920 C.3   215  TYR215      0.1605
     90  C         41.3410   16.7030   19.5480 C.2   215  TYR215      0.2264
     91  O         40.7130   17.3390   18.6440 O.2   215  TYR215     -0.2867
     92  CB        43.4210   16.1290   20.9380 C.3   215  TYR215      0.0534
     93  CG        44.9420   16.1470   21.0900 C.ar  215  TYR215     -0.0201
     94  CD1       45.6210   17.2870   21.5610 C.ar  215  TYR215     -0.0009
     95  CD2       45.6980   15.0180   20.8000 C.ar  215  TYR215     -0.0009
     96  CE1       47.0200   17.3090   21.7080 C.ar  215  TYR215      0.0417
     97  CE2       47.1130   15.0090   20.9500 C.ar  215  TYR215      0.0417
     98  CZ        47.7640   16.1600   21.3940 C.ar  215  TYR215      0.1957
     99  OH        49.1350   16.1490   21.5410 O.3   215  TYR215     -0.2866
    100  N         51.3760   17.8490   24.4550 N.3   233  VAL233     -0.1245
    101  CA        51.1460   17.0650   25.6680 C.3   233  VAL233      0.1561
    102  C         52.0730   17.4500   26.8580 C.2   233  VAL233      0.2260
    103  O         51.9300   16.9370   28.0140 O.2   233  VAL233     -0.2867
    104  CB        51.3210   15.5200   25.4190 C.3   233  VAL233      0.0252
    105  CG1       50.1190   14.9280   24.7250 C.3   233  VAL233      0.0019
    106  CG2       52.6300   15.1710   24.6250 C.3   233  VAL233      0.0019
@<TRIPOS>BOND
     1    39    38    2
     2    48    47    2
     3    38    37    1
     4    47    46    1
     5    70    71    1
     6    74    71    1
     7    74    75    1
     8    65    64    2
     9    71    72    1
    10    37    40    1
    11    37    36    1
    12    76    75   ar
    13    76    78   ar
    14    40    41    1
    15    75    77   ar
    16    46    45    1
    17    46    49    1
    18    41    42    1
    19    64    63    1
    20    78    80   ar
    21    42    43    1
    22    72    73    2
    23    49    50    1
    24    77    79   ar
    25    63    66    1
    26    63    62    1
    27    80    79   ar
    28    80    81    1
    29    43    44    1
    30    66    67    1
    31    68    67    2
    32    50    51    2
    33    50    52   am
    34    67    69   am
    35    33    32    2
    36    82    83    1
    37    87    86    1
    38    32    31    1
    39    91    90    2
    40    31    34    1
    41    31    30    1
    42    24    23    2
    43    83    86    1
    44    83    84    1
    45    34    35    1
    46    90    89    1
    47    89    88    1
    48    89    92    1
    49    23    30   am
    50    23    22    1
    51    84    85    2
    52    95    97   ar
    53    95    93   ar
    54    92    93    1
    55    97    98   ar
    56    93    94   ar
    57    22    21    1
    58    22    25    1
    59    60    59   ar
    60    98    99    1
    61    98    96   ar
    62    94    96   ar
    63    56    55    2
    64    61    59   ar
    65    59    58    1
    66    55    54    1
    67    28    27    2
    68    57    58    1
    69    57    54    1
    70    25    26    1
    71    54    53    1
    72    27    26    1
    73    27    29   am
    74    12    11    1
    75    10    11   ar
    76    10     8   ar
    77    11     9   ar
    78   100   101    1
    79   106   104    1
    80   105   104    1
    81     8     6   ar
    82    20    18    1
    83    18    17    1
    84   104   101    1
    85     9     7   ar
    86   101   102    1
    87     6     7   ar
    88     6     5    1
    89    19    17    1
    90    17    14    1
    91     4     3    2
    92   102   103    2
    93     5     2    1
    94     3    13   am
    95     3     2    1
    96    14    13    1
    97    14    15    1
    98     2     1    1
    99    15    16    2
