@<TRIPOS>MOLECULE
tmp/3brnA00.pdb
 127 118 0 0 0
SMALL
GASTEIGER

@<TRIPOS>ATOM
      1  N        -17.1650   33.3800   -8.9310 N.3    14  SER14      -0.1202
      2  CA       -16.3630   34.2900   -9.7240 C.3    14  SER14       0.2020
      3  C        -15.2990   33.5280  -10.5430 C.2    14  SER14       0.2618
      4  O        -15.1030   33.7830  -11.7330 O.2    14  SER14      -0.2717
      5  CB       -15.6800   35.3300   -8.8160 C.3    14  SER14       0.2103
      6  OG       -14.7640   36.1000   -9.5760 O.3    14  SER14      -0.2182
      7  N        -14.5660   32.6460   -9.8820 N.am   15  VAL15      -0.1979
      8  CA       -13.4740   31.9180  -10.5210 C.3    15  VAL15       0.1595
      9  C        -13.9860   30.9360  -11.5900 C.2    15  VAL15       0.2287
     10  O        -13.3540   30.7520  -12.6270 O.2    15  VAL15      -0.2864
     11  CB       -12.6330   31.1640   -9.4710 C.3    15  VAL15       0.0276
     12  CG1      -11.6180   30.2270  -10.1380 C.3    15  VAL15       0.0022
     13  CG2      -11.9710   32.1510   -8.5050 C.3    15  VAL15       0.0022
     14  N        -10.2790   35.0980  -18.3690 N.3    23  TYR23      -0.1241
     15  CA       -10.4230   36.5140  -18.0440 C.3    23  TYR23       0.1605
     16  C         -9.1120   37.2680  -18.2920 C.2    23  TYR23       0.2264
     17  O         -8.0400   36.8260  -17.8650 O.2    23  TYR23      -0.2867
     18  CB       -10.8450   36.6820  -16.5740 C.3    23  TYR23       0.0534
     19  CG       -12.2880   36.3150  -16.2950 C.ar   23  TYR23      -0.0201
     20  CD1      -13.2520   37.2950  -16.1010 C.ar   23  TYR23      -0.0009
     21  CD2      -12.6600   34.9890  -16.1270 C.ar   23  TYR23      -0.0009
     22  CE1      -14.5830   36.9560  -15.8450 C.ar   23  TYR23       0.0417
     23  CE2      -13.9560   34.6410  -15.8570 C.ar   23  TYR23       0.0417
     24  CZ       -14.9090   35.6200  -15.6930 C.ar   23  TYR23       0.1957
     25  OH       -16.2090   35.2380  -15.4920 O.3    23  TYR23      -0.2866
     26  N         -6.0390   34.9270  -16.8100 N.3    39  VAL39      -0.1231
     27  CA        -6.1810   33.6450  -16.1470 C.3    39  VAL39       0.1692
     28  C         -7.1740   32.8630  -16.9840 C.2    39  VAL39       0.2591
     29  O         -7.9840   33.4590  -17.6880 O.2    39  VAL39      -0.2718
     30  CB        -6.7570   33.7830  -14.7040 C.3    39  VAL39       0.0266
     31  CG1       -5.7660   34.4660  -13.7900 C.3    39  VAL39       0.0020
     32  CG2       -8.1240   34.5050  -14.7040 C.3    39  VAL39       0.0020
     33  N         -7.0600   31.5330  -16.9600 N.am   40  LEU40      -0.1980
     34  CA        -8.0800   30.6730  -17.5430 C.3    40  LEU40       0.1596
     35  C         -8.9260   30.1280  -16.3980 C.2    40  LEU40       0.2287
     36  O         -8.3900   29.8400  -15.3240 O.2    40  LEU40      -0.2864
     37  CB        -7.4310   29.4940  -18.2880 C.3    40  LEU40       0.0297
     38  CG        -6.7100   29.7820  -19.6130 C.3    40  LEU40       0.0022
     39  CD1       -6.3250   28.4620  -20.3050 C.3    40  LEU40       0.0001
     40  CD2       -7.5980   30.5930  -20.5310 C.3    40  LEU40       0.0001
     41  N         -4.8290   26.2190  -11.8590 N.3    54  PHE54      -0.1241
     42  CA        -5.3530   27.0440  -12.9320 C.3    54  PHE54       0.1605
     43  C         -4.1940   27.5890  -13.7330 C.2    54  PHE54       0.2264
     44  O         -3.0610   27.6200  -13.2530 O.2    54  PHE54      -0.2867
     45  CB        -6.2220   28.1910  -12.3960 C.3    54  PHE54       0.0534
     46  CG        -5.4420   29.2770  -11.7130 C.ar   54  PHE54      -0.0203
     47  CD1       -4.9520   29.0910  -10.4340 C.ar   54  PHE54      -0.0042
     48  CD2       -5.2010   30.4840  -12.3510 C.ar   54  PHE54      -0.0042
     49  CE1       -4.1850   30.0500   -9.8320 C.ar   54  PHE54      -0.0003
     50  CE2       -4.4510   31.4600  -11.7490 C.ar   54  PHE54      -0.0003
     51  CZ        -3.9620   31.2600  -10.4680 C.ar   54  PHE54      -0.0000
     52  N         -5.2020   27.8700   -6.7780 N.3    71  VAL71      -0.1245
     53  CA        -6.1680   28.8390   -6.2780 C.3    71  VAL71       0.1561
     54  C         -7.1360   28.1150   -5.3300 C.2    71  VAL71       0.2260
     55  O         -7.5960   27.0130   -5.6300 O.2    71  VAL71      -0.2867
     56  CB        -6.9540   29.4680   -7.4470 C.3    71  VAL71       0.0252
     57  CG1       -7.8500   28.4140   -8.1090 C.3    71  VAL71       0.0019
     58  CG2       -7.7610   30.6960   -6.9690 C.3    71  VAL71       0.0019
     59  N        -10.1600   34.8460   -3.0680 N.3    78  ILE78      -0.1245
     60  CA        -9.4230   34.0170   -4.0240 C.3    78  ILE78       0.1561
     61  C         -7.9640   34.0310   -3.5870 C.2    78  ILE78       0.2260
     62  O         -7.3200   35.0840   -3.5770 O.2    78  ILE78      -0.2867
     63  CB        -9.5130   34.5770   -5.4680 C.3    78  ILE78       0.0252
     64  CG1      -10.9630   34.5410   -5.9690 C.3    78  ILE78       0.0019
     65  CG2       -8.6010   33.7800   -6.4360 C.3    78  ILE78       0.0019
     66  CD1      -11.1770   35.3220   -7.2650 C.3    78  ILE78       0.0001
     67  N         -4.2230   32.7310   -3.9650 N.3    80  VAL80      -0.1245
     68  CA        -3.3600   32.1640   -4.9770 C.3    80  VAL80       0.1561
     69  C         -1.9870   31.8400   -4.3830 C.2    80  VAL80       0.2260
     70  O         -1.4820   32.5850   -3.5320 O.2    80  VAL80      -0.2867
     71  CB        -3.1980   33.1030   -6.2020 C.3    80  VAL80       0.0252
     72  CG1       -2.0540   32.6320   -7.0820 C.3    80  VAL80       0.0019
     73  CG2       -4.4840   33.1570   -7.0000 C.3    80  VAL80       0.0019
     74  N          0.5850   37.4370   -8.9480 N.3    87  LEU87      -0.1245
     75  CA        -0.7560   36.9510   -8.6750 C.3    87  LEU87       0.1561
     76  C         -0.9050   36.2650   -7.3160 C.2    87  LEU87       0.2260
     77  O         -2.0220   36.1050   -6.8160 O.2    87  LEU87      -0.2867
     78  CB        -1.1940   36.0280   -9.8120 C.3    87  LEU87       0.0270
     79  CG        -2.6710   35.8680  -10.1490 C.3    87  LEU87       0.0019
     80  CD1       -3.3430   37.2290  -10.3400 C.3    87  LEU87       0.0001
     81  CD2       -2.7810   35.0140  -11.4080 C.3    87  LEU87       0.0001
     82  N         -6.7090   37.7040   -3.2600 N.3    91  THR91      -0.1218
     83  CA        -7.5350   38.5930   -4.0650 C.3    91  THR91       0.1862
     84  C         -8.9690   38.5490   -3.5170 C.2    91  THR91       0.2287
     85  O         -9.4980   37.4740   -3.2540 O.2    91  THR91      -0.2866
     86  CB        -7.5280   38.1060   -5.5160 C.3    91  THR91       0.1770
     87  OG1       -6.2430   38.3470   -6.0970 O.3    91  THR91      -0.2211
     88  CG2       -8.6130   38.7960   -6.3330 C.3    91  THR91       0.0375
     89  N        -15.3970   40.8890  -13.3520 N.3   102  ASP102     -0.1239
     90  CA       -15.2240   40.9500  -11.9230 C.3   102  ASP102      0.1674
     91  C        -14.5490   42.2490  -11.5620 C.2   102  ASP102      0.2266
     92  O        -13.7400   42.7310  -12.3130 O.2   102  ASP102     -0.2867
     93  CB       -14.2860   39.8750  -11.4280 C.3   102  ASP102      0.1410
     94  CG       -14.5940   38.5300  -11.9570 C.2   102  ASP102      0.3668
     95  OD1      -15.6360   37.9840  -11.6500 O.co2 102  ASP102     -0.2456
     96  OD2      -13.7400   37.9950  -12.6250 O.co2 102  ASP102     -0.2456
     97  N        -12.0040   43.3610   -8.4140 N.3   104  MET104     -0.1245
     98  CA       -11.2730   42.7560   -7.3200 C.3   104  MET104      0.1570
     99  C        -10.4950   43.8300   -6.5650 C.2   104  MET104      0.2261
    100  O        -10.0950   44.8540   -7.1410 O.2   104  MET104     -0.2867
    101  CB       -10.2170   41.7770   -7.8750 C.3   104  MET104      0.0387
    102  CG       -10.7340   40.7020   -8.8190 C.3   104  MET104      0.0595
    103  SD       -12.0140   39.6740   -8.1070 S.3   104  MET104     -0.1393
    104  CE       -11.9040   38.2600   -9.2150 C.3   104  MET104      0.0692
    105  N         -8.7960   46.1540   -9.4770 N.3   112  GLU112     -0.1245
    106  CA        -8.6430   45.4390  -10.7440 C.3   112  GLU112      0.1567
    107  C         -9.9850   45.1960  -11.3990 C.2   112  GLU112      0.2260
    108  O        -10.9370   44.7690  -10.7420 O.2   112  GLU112     -0.2867
    109  CB        -7.9820   44.0790  -10.4990 C.3   112  GLU112      0.0388
    110  CG        -6.5610   44.1920   -9.9340 C.3   112  GLU112      0.1160
    111  CD        -5.9350   42.8370   -9.6420 C.2   112  GLU112      0.3649
    112  OE1       -6.6740   41.8220   -9.6400 O.co2 112  GLU112     -0.2457
    113  OE2       -4.7260   42.8030   -9.3150 O.co2 112  GLU112     -0.2457
    114  N        -11.3800   42.6320  -14.2210 N.3   114  TRP114     -0.1241
    115  CA       -11.1230   41.4810  -15.0440 C.3   114  TRP114      0.1605
    116  C        -12.3020   41.2410  -15.9490 C.2   114  TRP114      0.2264
    117  O        -13.4020   41.3640  -15.5260 O.2   114  TRP114     -0.2867
    118  CB       -10.8320   40.2720  -14.1920 C.3   114  TRP114      0.0550
    119  CG        -9.6250   40.3000  -13.3880 C.ar  114  TRP114      0.0003
    120  CD1       -9.4590   40.9280  -12.2380 C.ar  114  TRP114      0.0946
    121  CD2       -8.3970   39.6630  -13.6760 C.ar  114  TRP114      0.0152
    122  NE1       -8.2230   40.7370  -11.7610 N.ar  114  TRP114     -0.2442
    123  CE2       -7.5310   39.9630  -12.6410 C.ar  114  TRP114      0.0810
    124  CE3       -7.9370   38.8750  -14.7150 C.ar  114  TRP114      0.0012
    125  CZ2       -6.2500   39.4730  -12.5920 C.ar  114  TRP114      0.0191
    126  CZ3       -6.6650   38.4120  -14.6630 C.ar  114  TRP114      0.0001
    127  CH2       -5.8400   38.6970  -13.6210 C.ar  114  TRP114      0.0015
@<TRIPOS>BOND
     1    40    38    1
     2    39    38    1
     3    38    37    1
     4    14    15    1
     5    16    15    1
     6    16    17    2
     7    37    34    1
     8    15    18    1
     9    29    28    2
    10    34    33    1
    11    34    35    1
    12    28    33   am
    13    28    27    1
    14    26    27    1
    15    18    19    1
    16    35    36    2
    17    19    21   ar
    18    19    20   ar
    19    27    30    1
    20    21    23   ar
    21    20    22   ar
    22   116   117    2
    23   116   115    1
    24    23    24   ar
    25    22    24   ar
    26    24    25    1
    27   115   114    1
    28   115   118    1
    29   124   126   ar
    30   124   121   ar
    31    30    32    1
    32    30    31    1
    33   126   127   ar
    34   118   119    1
    35    43    44    2
    36    43    42    1
    37   121   119   ar
    38   121   123   ar
    39   127   125   ar
    40   119   120   ar
    41    89    90    1
    42    42    45    1
    43    42    41    1
    44   123   125   ar
    45   123   122   ar
    46    10     9    2
    47    96    94   ar
    48    45    46    1
    49    48    50   ar
    50    48    46   ar
    51    92    91    2
    52   120   122   ar
    53    94    95   ar
    54    94    93    1
    55    90    91    1
    56    90    93    1
    57    50    51   ar
    58     4     3    2
    59    46    47   ar
    60     9     8    1
    61    81    79    1
    62   107   106    1
    63   107   108    2
    64   106   109    1
    65   106   105    1
    66     3     7   am
    67     3     2    1
    68     8     7    1
    69     8    11    1
    70   109   110    1
    71    51    49   ar
    72    47    49   ar
    73    80    79    1
    74    79    78    1
    75    12    11    1
    76   110   111    1
    77    78    75    1
    78     2     1    1
    79     2     5    1
    80   111   112   ar
    81   111   113   ar
    82     6     5    1
    83    11    13    1
    84   104   103    1
    85    74    75    1
    86   102   103    1
    87   102   101    1
    88    75    76    1
    89    97    98    1
    90    57    56    1
    91   101    98    1
    92    56    58    1
    93    56    53    1
    94    98    99    1
    95    76    77    2
    96    66    64    1
    97   100    99    2
    98    72    71    1
    99    73    71    1
   100    52    53    1
   101    65    63    1
   102    88    86    1
   103    53    54    1
   104    71    68    1
   105    87    86    1
   106    64    63    1
   107    55    54    2
   108    86    83    1
   109    63    60    1
   110    68    69    1
   111    68    67    1
   112    69    70    2
   113    83    84    1
   114    83    82    1
   115    60    61    1
   116    60    59    1
   117    61    62    2
   118    84    85    2
