@<TRIPOS>MOLECULE
tmp/3brqA00.pdb
 126 120 0 0 0
SMALL
GASTEIGER

@<TRIPOS>ATOM
      1  N          3.9980   67.2910   25.6160 N.3    12  LEU12      -0.1245
      2  CA         4.7830   66.0410   25.4490 C.3    12  LEU12       0.1561
      3  C          5.2310   65.7710   23.9980 C.2    12  LEU12       0.2260
      4  O          5.8750   64.7250   23.7230 O.2    12  LEU12      -0.2867
      5  CB         4.0130   64.8180   25.9840 C.3    12  LEU12       0.0270
      6  CG         3.6660   64.8910   27.4830 C.3    12  LEU12       0.0019
      7  CD1        2.6660   63.7890   27.8310 C.3    12  LEU12       0.0001
      8  CD2        4.9100   64.7690   28.3130 C.3    12  LEU12       0.0001
      9  N          7.6720   66.2070   22.2660 N.3    14  HIS14      -0.1241
     10  CA         9.1300   66.3410   22.2370 C.3    14  HIS14       0.1621
     11  C          9.6790   64.9730   22.6740 C.2    14  HIS14       0.2264
     12  O         10.8200   64.6580   22.3540 O.2    14  HIS14      -0.2867
     13  CB         9.6590   67.4490   23.1880 C.3    14  HIS14       0.0745
     14  CG         8.8640   68.7300   23.1460 C.ar   14  HIS14       0.0817
     15  ND1        9.0780   69.7200   22.1990 N.ar   14  HIS14      -0.2268
     16  CD2        7.8390   69.1690   23.9260 C.ar   14  HIS14       0.1154
     17  CE1        8.2170   70.7040   22.3930 C.ar   14  HIS14       0.1986
     18  NE2        7.4510   70.3930   23.4300 N.ar   14  HIS14      -0.2212
     19  N         10.8410   59.6180   22.6290 N.3    15  TYR15      -0.1227
     20  CA         9.7400   58.9160   23.2650 C.3    15  TYR15       0.1736
     21  C          8.3740   59.2030   22.6080 C.2    15  TYR15       0.2595
     22  O          7.5600   58.2910   22.3960 O.2    15  TYR15      -0.2718
     23  CB         9.6560   59.2680   24.7430 C.3    15  TYR15       0.0548
     24  CG         8.5800   58.4750   25.4270 C.ar   15  TYR15      -0.0200
     25  CD1        8.8500   57.2270   25.9430 C.ar   15  TYR15      -0.0009
     26  CD2        7.2780   58.9620   25.5290 C.ar   15  TYR15      -0.0009
     27  CE1        7.8590   56.4730   26.5440 C.ar   15  TYR15       0.0417
     28  CE2        6.2880   58.2250   26.1460 C.ar   15  TYR15       0.0417
     29  CZ         6.5860   56.9770   26.6490 C.ar   15  TYR15       0.1957
     30  OH         5.6080   56.2210   27.2710 O.3    15  TYR15      -0.2866
     31  N          8.0990   60.4780   22.3540 N.am   16  PHE16      -0.1976
     32  CA         6.8700   60.8240   21.6530 C.3    16  PHE16       0.1639
     33  C          6.9070   60.3510   20.1880 C.2    16  PHE16       0.2290
     34  O          5.9200   59.8400   19.6380 O.2    16  PHE16      -0.2864
     35  CB         6.6050   62.3200   21.7000 C.3    16  PHE16       0.0560
     36  CG         5.3810   62.7070   20.9480 C.ar   16  PHE16      -0.0200
     37  CD1        4.1190   62.3660   21.4270 C.ar   16  PHE16      -0.0042
     38  CD2        5.4860   63.3240   19.6990 C.ar   16  PHE16      -0.0042
     39  CE1        2.9550   62.7090   20.7110 C.ar   16  PHE16      -0.0003
     40  CE2        4.3400   63.6640   18.9930 C.ar   16  PHE16      -0.0003
     41  CZ         3.0790   63.3540   19.5200 C.ar   16  PHE16      -0.0000
     42  N         -2.5250   59.8740   27.4750 N.3    62  TYR62      -0.1241
     43  CA        -1.2390   60.0350   28.1090 C.3    62  TYR62       0.1605
     44  C         -1.3330   61.3930   28.8620 C.2    62  TYR62       0.2264
     45  O         -1.0890   62.4620   28.3290 O.2    62  TYR62      -0.2867
     46  CB        -0.1190   59.8960   27.0810 C.3    62  TYR62       0.0534
     47  CG         1.3150   60.0690   27.5540 C.ar   62  TYR62      -0.0201
     48  CD1        1.6810   60.1670   28.9260 C.ar   62  TYR62      -0.0009
     49  CD2        2.3220   60.1320   26.6150 C.ar   62  TYR62      -0.0009
     50  CE1        3.0320   60.3260   29.2770 C.ar   62  TYR62       0.0417
     51  CE2        3.6210   60.2890   26.9510 C.ar   62  TYR62       0.0417
     52  CZ         3.9870   60.3730   28.2520 C.ar   62  TYR62       0.1957
     53  OH         5.3230   60.5330   28.4480 O.3    62  TYR62      -0.2866
     54  N         -1.1440   64.5550   31.5310 N.3    64  ARG64      -0.1245
     55  CA        -0.2160   65.3980   32.2420 C.3    64  ARG64       0.1563
     56  C         -0.9040   66.1680   33.3660 C.2    64  ARG64       0.2260
     57  O         -0.2750   66.5230   34.3500 O.2    64  ARG64      -0.2867
     58  CB         0.3700   66.4150   31.2680 C.3    64  ARG64       0.0307
     59  CG         1.8420   66.5840   31.4100 C.3    64  ARG64       0.0489
     60  CD         2.4970   65.2010   31.4290 C.3    64  ARG64       0.2205
     61  NE         3.9580   65.1560   31.6010 N.pl3  64  ARG64      -0.0865
     62  CZ         4.7650   66.1460   31.9890 C.cat  64  ARG64       0.5346
     63  NH1        4.3120   67.3630   32.2840 N.pl3  64  ARG64       0.1354
     64  NH2        6.0620   65.8980   32.0750 N.pl3  64  ARG64       0.1354
     65  N          8.4770   66.7830   35.3780 N.3   127  SER127     -0.1217
     66  CA         8.1770   65.4360   34.8680 C.3   127  SER127      0.1889
     67  C          8.2260   64.3870   35.9740 C.2   127  SER127      0.2288
     68  O          9.2280   64.2790   36.6710 O.2   127  SER127     -0.2866
     69  CB         9.1860   65.0500   33.7780 C.3   127  SER127      0.2089
     70  OG         9.1010   63.6620   33.4570 O.3   127  SER127     -0.2183
     71  N          8.5220   61.1970   35.5950 N.3   129  THR129     -0.1218
     72  CA         9.5830   60.2720   35.2130 C.3   129  THR129      0.1862
     73  C         10.9040   60.8040   35.7130 C.2   129  THR129      0.2287
     74  O         11.6690   60.0710   36.3350 O.2   129  THR129     -0.2866
     75  CB         9.5760   59.9940   33.6800 C.3   129  THR129      0.1770
     76  OG1        8.3730   59.2990   33.3770 O.3   129  THR129     -0.2211
     77  CG2       10.7520   59.0970   33.2630 C.3   129  THR129      0.0375
     78  N         13.2310   58.7650   38.6010 N.3   133  ARG133     -0.1245
     79  CA        14.6220   58.3630   38.3190 C.3   133  ARG133      0.1563
     80  C         15.6110   58.9100   39.3560 C.2   133  ARG133      0.2260
     81  O         16.4470   58.1800   39.8770 O.2   133  ARG133     -0.2867
     82  CB        15.0210   58.7530   36.8770 C.3   133  ARG133      0.0307
     83  CG        14.3440   57.8710   35.8670 C.3   133  ARG133      0.0489
     84  CD        14.6930   58.2170   34.3910 C.3   133  ARG133      0.2205
     85  NE        13.9300   57.3380   33.5270 N.pl3 133  ARG133     -0.0865
     86  CZ        13.6890   57.5490   32.2310 C.cat 133  ARG133      0.5346
     87  NH1       14.1250   58.6400   31.6420 N.pl3 133  ARG133      0.1354
     88  NH2       12.9530   56.6900   31.5470 N.pl3 133  ARG133      0.1354
     89  N         16.4600   67.4580   29.7230 N.3   158  TRP158     -0.1241
     90  CA        16.1870   66.3980   28.7220 C.3   158  TRP158      0.1605
     91  C         16.9210   66.6140   27.3850 C.2   158  TRP158      0.2264
     92  O         16.8950   65.7500   26.5110 O.2   158  TRP158     -0.2867
     93  CB        14.6750   66.1930   28.4520 C.3   158  TRP158      0.0550
     94  CG        13.7610   65.7770   29.6480 C.ar  158  TRP158      0.0003
     95  CD1       12.6940   66.4870   30.1270 C.ar  158  TRP158      0.0946
     96  CD2       13.8100   64.5690   30.4400 C.ar  158  TRP158      0.0152
     97  NE1       12.0950   65.8190   31.1770 N.ar  158  TRP158     -0.2442
     98  CE2       12.7590   64.6440   31.3920 C.ar  158  TRP158      0.0810
     99  CE3       14.6410   63.4410   30.4490 C.ar  158  TRP158      0.0012
    100  CZ2       12.5040   63.6220   32.3280 C.ar  158  TRP158      0.0191
    101  CZ3       14.3940   62.4320   31.4010 C.ar  158  TRP158      0.0001
    102  CH2       13.3250   62.5240   32.3070 C.ar  158  TRP158      0.0015
    103  N         18.2760   60.7310   30.4660 N.3   181  ASN181     -0.1240
    104  CA        18.0640   60.1460   29.1440 C.3   181  ASN181      0.1653
    105  C         19.3470   60.0740   28.3020 C.2   181  ASN181      0.2266
    106  O         20.3510   60.6830   28.5970 O.2   181  ASN181     -0.2867
    107  CB        16.8870   60.8160   28.3680 C.3   181  ASN181      0.1155
    108  CG        17.1750   62.2550   27.9490 C.2   181  ASN181      0.2627
    109  OD1       18.2470   62.8000   28.1960 O.2   181  ASN181     -0.2716
    110  ND2       16.2280   62.8580   27.3120 N.am  181  ASN181     -0.0877
    111  N         19.8580   61.5260   25.4080 N.3   183  ASP183     -0.1239
    112  CA        20.2020   62.8330   24.8380 C.3   183  ASP183      0.1674
    113  C         21.1680   63.5850   25.7490 C.2   183  ASP183      0.2266
    114  O         22.2080   64.0730   25.3220 O.2   183  ASP183     -0.2867
    115  CB        18.9280   63.6500   24.5640 C.3   183  ASP183      0.1410
    116  CG        18.2730   63.2930   23.2440 C.2   183  ASP183      0.3668
    117  OD1       18.9070   62.5870   22.4150 O.co2 183  ASP183     -0.2456
    118  OD2       17.0980   63.7050   23.0480 O.co2 183  ASP183     -0.2456
    119  N         16.7010   55.1180   27.8130 N.3   207  ASP207     -0.1239
    120  CA        16.0210   55.2080   26.4700 C.3   207  ASP207      0.1674
    121  C         16.5500   54.2120   25.4710 C.2   207  ASP207      0.2266
    122  O         15.8060   53.7580   24.6130 O.2   207  ASP207     -0.2867
    123  CB        16.1030   56.6150   25.8260 C.3   207  ASP207      0.1410
    124  CG        15.1320   57.6460   26.4980 C.2   207  ASP207      0.3668
    125  OD1       14.2150   57.2310   27.2300 O.co2 207  ASP207     -0.2456
    126  OD2       15.3120   58.8480   26.2730 O.co2 207  ASP207     -0.2456
@<TRIPOS>BOND
     1    40    41   ar
     2    40    38   ar
     3    41    39   ar
     4    34    33    2
     5    38    36   ar
     6    33    32    1
     7    39    37   ar
     8    36    37   ar
     9    36    35    1
    10    32    35    1
    11    32    31    1
    12    15    17   ar
    13    15    14   ar
    14    10     9    1
    15    10    11    1
    16    10    13    1
    17    12    11    2
    18    31    21   am
    19    17    18   ar
    20    22    21    2
    21   117   116   ar
    22    21    20    1
    23    19    20    1
    24   118   116   ar
    25    14    13    1
    26    14    16   ar
    27   116   115    1
    28    20    23    1
    29    18    16   ar
    30     4     3    2
    31     3     2    1
    32   115   112    1
    33   122   121    2
    34    23    24    1
    35   112   111    1
    36   112   113    1
    37   114   113    2
    38    24    26   ar
    39    24    25   ar
    40     2     1    1
    41     2     5    1
    42   121   120    1
    43    26    28   ar
    44   123   120    1
    45   123   124    1
    46    25    27   ar
    47     5     6    1
    48    28    29   ar
    49   126   124   ar
    50   120   119    1
    51   124   125   ar
    52    92    91    2
    53    27    29   ar
    54    49    51   ar
    55    49    47   ar
    56    29    30    1
    57    51    52   ar
    58    46    47    1
    59    46    43    1
    60   110   108   am
    61    91    90    1
    62    42    43    1
    63     6     7    1
    64     6     8    1
    65    47    48   ar
    66   108   109    2
    67   108   107    1
    68    43    44    1
    69    52    53    1
    70    52    50   ar
    71   105   106    2
    72   105   104    1
    73    45    44    2
    74   107   104    1
    75    93    90    1
    76    93    94    1
    77    90    89    1
    78    48    50   ar
    79   104   103    1
    80    94    95   ar
    81    94    96   ar
    82    95    97   ar
    83    96    99   ar
    84    96    98   ar
    85    99   101   ar
    86    97    98   ar
    87    58    59    1
    88    58    55    1
    89    98   100   ar
    90   101   102   ar
    91    59    60    1
    92    60    61    1
    93    54    55    1
    94    88    86    1
    95    61    62    2
    96    87    86    1
    97    62    64    1
    98    62    63    1
    99    86    85    2
   100    55    56    1
   101   102   100   ar
   102    77    75    1
   103    56    57    2
   104    76    75    1
   105    70    69    1
   106    85    84    1
   107    75    72    1
   108    69    66    1
   109    84    83    1
   110    66    65    1
   111    66    67    1
   112    72    71    1
   113    72    73    1
   114    73    74    2
   115    83    82    1
   116    67    68    2
   117    82    79    1
   118    79    78    1
   119    79    80    1
   120    80    81    2
