@<TRIPOS>MOLECULE
tmp/3bryB00.pdb
 188 174 0 0 0
SMALL
GASTEIGER

@<TRIPOS>ATOM
      1  N         17.2080   18.3960  -16.3230 N.3     2  PHE2       -0.1241
      2  CA        17.3820   17.3770  -17.3500 C.3     2  PHE2        0.1605
      3  C         16.8970   15.9760  -17.0350 C.2     2  PHE2        0.2264
      4  O         16.4590   15.2350  -17.9130 O.2     2  PHE2       -0.2867
      5  CB        18.8400   17.3460  -17.7790 C.3     2  PHE2        0.0534
      6  CG        19.1390   18.3000  -18.8750 C.ar    2  PHE2       -0.0203
      7  CD1       19.8190   19.4870  -18.6340 C.ar    2  PHE2       -0.0042
      8  CD2       18.6730   18.0380  -20.1530 C.ar    2  PHE2       -0.0042
      9  CE1       20.0250   20.4040  -19.6630 C.ar    2  PHE2       -0.0003
     10  CE2       18.8700   18.9400  -21.1830 C.ar    2  PHE2       -0.0003
     11  CZ        19.5470   20.1270  -20.9420 C.ar    2  PHE2       -0.0000
     12  N         25.5180   13.4000  -22.3000 N.3   125  LEU125     -0.1245
     13  CA        25.4660   14.7620  -21.7730 C.3   125  LEU125      0.1561
     14  C         25.8740   14.7420  -20.3000 C.2   125  LEU125      0.2260
     15  O         25.2530   14.0640  -19.4810 O.2   125  LEU125     -0.2867
     16  CB        24.0610   15.3550  -21.9180 C.3   125  LEU125      0.0270
     17  CG        23.9070   16.8060  -21.4410 C.3   125  LEU125      0.0019
     18  CD1       24.8470   17.7060  -22.2220 C.3   125  LEU125      0.0001
     19  CD2       22.4680   17.2680  -21.6150 C.3   125  LEU125      0.0001
     20  N         28.7920   17.4780  -23.7510 N.3   155  LEU155     -0.1245
     21  CA        28.0140   16.4660  -24.4530 C.3   155  LEU155      0.1561
     22  C         28.7220   16.0630  -25.7320 C.2   155  LEU155      0.2260
     23  O         29.7680   16.6110  -26.0760 O.2   155  LEU155     -0.2867
     24  CB        26.6180   16.9750  -24.8160 C.3   155  LEU155      0.0270
     25  CG        26.5010   17.6920  -26.1630 C.3   155  LEU155      0.0019
     26  CD1       25.0440   17.8020  -26.5780 C.3   155  LEU155      0.0001
     27  CD2       27.1530   19.0560  -26.0610 C.3   155  LEU155      0.0001
     28  N         27.3330   13.4180  -29.3010 N.3   157  LEU157     -0.1245
     29  CA        26.6130   12.2610  -29.8000 C.3   157  LEU157      0.1561
     30  C         27.2750   11.6770  -31.0340 C.2   157  LEU157      0.2260
     31  O         28.3810   12.0570  -31.4160 O.2   157  LEU157     -0.2867
     32  CB        25.1460   12.6050  -30.1180 C.3   157  LEU157      0.0270
     33  CG        24.7200   13.7880  -31.0000 C.3   157  LEU157      0.0019
     34  CD1       24.8820   15.0710  -30.2200 C.3   157  LEU157      0.0001
     35  CD2       25.5140   13.8250  -32.2930 C.3   157  LEU157      0.0001
     36  N         25.2710   10.3800  -34.4870 N.3   159  THR159     -0.1218
     37  CA        23.9780   10.0950  -35.0850 C.3   159  THR159      0.1862
     38  C         23.9130   10.4360  -36.5670 C.2   159  THR159      0.2287
     39  O         24.7610   11.1610  -37.0890 O.2   159  THR159     -0.2866
     40  CB        22.8740   10.8830  -34.3450 C.3   159  THR159      0.1770
     41  OG1       21.5890   10.5390  -34.8780 O.3   159  THR159     -0.2211
     42  CG2       23.1010   12.3850  -34.4960 C.3   159  THR159      0.0375
     43  N         21.6210   12.0040  -39.8100 N.3   161  LEU161     -0.1245
     44  CA        20.5720   12.9810  -40.0460 C.3   161  LEU161      0.1561
     45  C         20.1630   12.8790  -41.5040 C.2   161  LEU161      0.2260
     46  O         20.8110   13.4430  -42.3860 O.2   161  LEU161     -0.2867
     47  CB        21.0540   14.4010  -39.7380 C.3   161  LEU161      0.0270
     48  CG        22.2420   14.9470  -40.5310 C.3   161  LEU161      0.0019
     49  CD1       22.0660   16.4380  -40.7550 C.3   161  LEU161      0.0001
     50  CD2       23.5270   14.6530  -39.7930 C.3   161  LEU161      0.0001
     51  N         27.5460   13.0380  -37.6590 N.3   194  ILE194     -0.1245
     52  CA        28.4200   13.9630  -36.9560 C.3   194  ILE194      0.1561
     53  C         28.9670   13.1900  -35.7700 C.2   194  ILE194      0.2260
     54  O         28.3130   12.2790  -35.2630 O.2   194  ILE194     -0.2867
     55  CB        27.6760   15.2010  -36.4200 C.3   194  ILE194      0.0252
     56  CG1       26.5560   15.6030  -37.3760 C.3   194  ILE194      0.0019
     57  CG2       28.6540   16.3510  -36.2460 C.3   194  ILE194      0.0019
     58  CD1       25.2470   14.9070  -37.0850 C.3   194  ILE194      0.0001
     59  N         30.7430   14.4870  -32.4120 N.3   196  PHE196     -0.1241
     60  CA        31.3460   15.3870  -31.4400 C.3   196  PHE196      0.1605
     61  C         32.2870   14.4990  -30.6340 C.2   196  PHE196      0.2264
     62  O         31.8360   13.5940  -29.9300 O.2   196  PHE196     -0.2867
     63  CB        30.2710   15.9690  -30.5190 C.3   196  PHE196      0.0534
     64  CG        29.1300   16.6250  -31.2470 C.ar  196  PHE196     -0.0203
     65  CD1       27.8700   16.6860  -30.6640 C.ar  196  PHE196     -0.0042
     66  CD2       29.3110   17.1870  -32.5070 C.ar  196  PHE196     -0.0042
     67  CE1       26.8060   17.2960  -31.3240 C.ar  196  PHE196     -0.0003
     68  CE2       28.2520   17.8000  -33.1730 C.ar  196  PHE196     -0.0003
     69  CZ        26.9970   17.8530  -32.5790 C.ar  196  PHE196     -0.0000
     70  N         32.5260   15.1700  -39.1420 N.3   239  LEU239     -0.1245
     71  CA        31.3050   14.8450  -39.8710 C.3   239  LEU239      0.1561
     72  C         31.5980   13.9030  -41.0240 C.2   239  LEU239      0.2260
     73  O         32.7330   13.7980  -41.4880 O.2   239  LEU239     -0.2867
     74  CB        30.6330   16.1150  -40.4000 C.3   239  LEU239      0.0270
     75  CG        29.3870   15.9630  -41.2840 C.3   239  LEU239      0.0019
     76  CD1       28.5470   17.2230  -41.1970 C.3   239  LEU239      0.0001
     77  CD2       29.7890   15.6860  -42.7280 C.3   239  LEU239      0.0001
     78  N         28.5700   25.0950  -30.8880 N.3   253  VAL253     -0.1245
     79  CA        27.1320   25.0960  -30.6310 C.3   253  VAL253      0.1561
     80  C         26.7530   26.3300  -29.8180 C.2   253  VAL253      0.2260
     81  O         27.3060   26.5740  -28.7440 O.2   253  VAL253     -0.2867
     82  CB        26.6900   23.8250  -29.8670 C.3   253  VAL253      0.0252
     83  CG1       25.2320   23.9450  -29.4490 C.3   253  VAL253      0.0019
     84  CG2       26.8760   22.6000  -30.7500 C.3   253  VAL253      0.0019
     85  N         22.6050   26.6790  -26.4250 N.3   256  PHE256     -0.1241
     86  CA        22.1780   25.4640  -25.7420 C.3   256  PHE256      0.1605
     87  C         21.8450   25.9890  -24.3500 C.2   256  PHE256      0.2264
     88  O         22.7170   26.0930  -23.4890 O.2   256  PHE256     -0.2867
     89  CB        23.3170   24.4460  -25.6550 C.3   256  PHE256      0.0534
     90  CG        22.9170   23.1420  -25.0170 C.ar  256  PHE256     -0.0203
     91  CD1       22.3490   22.1230  -25.7740 C.ar  256  PHE256     -0.0042
     92  CD2       23.0860   22.9430  -23.6490 C.ar  256  PHE256     -0.0042
     93  CE1       21.9550   20.9230  -25.1780 C.ar  256  PHE256     -0.0003
     94  CE2       22.6960   21.7510  -23.0440 C.ar  256  PHE256     -0.0003
     95  CZ        22.1300   20.7390  -23.8090 C.ar  256  PHE256     -0.0000
     96  N         10.5950   25.6440  -19.9070 N.3   285  TRP285     -0.1241
     97  CA        11.2230   25.3090  -21.1770 C.3   285  TRP285      0.1605
     98  C         10.5970   26.1610  -22.2760 C.2   285  TRP285      0.2264
     99  O         11.0040   26.0950  -23.4340 O.2   285  TRP285     -0.2867
    100  CB        11.0130   23.8310  -21.5110 C.3   285  TRP285      0.0550
    101  CG        11.9950   22.9000  -20.8810 C.ar  285  TRP285      0.0003
    102  CD1       11.7450   21.9850  -19.9010 C.ar  285  TRP285      0.0946
    103  CD2       13.3740   22.7460  -21.2330 C.ar  285  TRP285      0.0152
    104  NE1       12.8830   21.2640  -19.6240 N.ar  285  TRP285     -0.2442
    105  CE2       13.8980   21.7110  -20.4280 C.ar  285  TRP285      0.0810
    106  CE3       14.2190   23.3810  -22.1530 C.ar  285  TRP285      0.0012
    107  CZ2       15.2300   21.2940  -20.5140 C.ar  285  TRP285      0.0191
    108  CZ3       15.5450   22.9660  -22.2390 C.ar  285  TRP285      0.0001
    109  CH2       16.0350   21.9300  -21.4230 C.ar  285  TRP285      0.0015
    110  N         19.1270   27.2460  -32.0780 N.3   292  MET292     -0.1245
    111  CA        20.3040   26.4990  -31.6690 C.3   292  MET292      0.1570
    112  C         20.9540   26.0350  -32.9620 C.2   292  MET292      0.2261
    113  O         20.4630   25.1170  -33.6180 O.2   292  MET292     -0.2867
    114  CB        19.9210   25.2910  -30.8150 C.3   292  MET292      0.0387
    115  CG        21.1260   24.5570  -30.2510 C.3   292  MET292      0.0595
    116  SD        20.6970   23.1280  -29.2550 S.3   292  MET292     -0.1393
    117  CE        21.0870   21.8640  -30.3700 C.3   292  MET292      0.0692
    118  N         24.3360   24.6470  -35.2260 N.3   294  VAL294     -0.1245
    119  CA        25.5440   23.8380  -35.1440 C.3   294  VAL294      0.1561
    120  C         26.5050   24.2380  -36.2630 C.2   294  VAL294      0.2260
    121  O         26.2410   23.9840  -37.4390 O.2   294  VAL294     -0.2867
    122  CB        25.2020   22.3380  -35.2680 C.3   294  VAL294      0.0252
    123  CG1       26.4220   21.4960  -34.9420 C.3   294  VAL294      0.0019
    124  CG2       24.0440   21.9920  -34.3390 C.3   294  VAL294      0.0019
    125  N         30.2500   24.4110  -38.3790 N.3   296  PHE296     -0.1241
    126  CA        31.2820   23.4820  -38.8240 C.3   296  PHE296      0.1605
    127  C         32.4430   24.1680  -39.5490 C.2   296  PHE296      0.2264
    128  O         32.3150   24.5560  -40.7090 O.2   296  PHE296     -0.2867
    129  CB        30.6540   22.4400  -39.7560 C.3   296  PHE296      0.0534
    130  CG        31.5100   21.2210  -39.9950 C.ar  296  PHE296     -0.0203
    131  CD1       32.8760   21.2260  -39.7200 C.ar  296  PHE296     -0.0042
    132  CD2       30.9430   20.0670  -40.5220 C.ar  296  PHE296     -0.0042
    133  CE1       33.6590   20.1000  -39.9690 C.ar  296  PHE296     -0.0003
    134  CE2       31.7190   18.9420  -40.7750 C.ar  296  PHE296     -0.0003
    135  CZ        33.0780   18.9570  -40.4980 C.ar  296  PHE296     -0.0000
    136  N         29.2230   25.0660  -42.8140 N.3   305  LEU305     -0.1245
    137  CA        28.0340   24.2230  -42.8510 C.3   305  LEU305      0.1561
    138  C         27.2080   24.4680  -41.5970 C.2   305  LEU305      0.2260
    139  O         27.3120   23.7330  -40.6140 O.2   305  LEU305     -0.2867
    140  CB        28.3940   22.7370  -42.9410 C.3   305  LEU305      0.0270
    141  CG        27.1660   21.8160  -42.9500 C.3   305  LEU305      0.0019
    142  CD1       26.2110   22.2410  -44.0580 C.3   305  LEU305      0.0001
    143  CD2       27.5960   20.3710  -43.1370 C.3   305  LEU305      0.0001
    144  N         23.6010   24.9380  -39.4320 N.3   307  LEU307     -0.1245
    145  CA        22.3160   24.2690  -39.3290 C.3   307  LEU307      0.1561
    146  C         21.5970   24.7750  -38.0910 C.2   307  LEU307      0.2260
    147  O         22.0350   24.5230  -36.9700 O.2   307  LEU307     -0.2867
    148  CB        22.5200   22.7570  -39.2220 C.3   307  LEU307      0.0270
    149  CG        21.3570   21.9450  -38.6490 C.3   307  LEU307      0.0019
    150  CD1       20.1070   22.1450  -39.4910 C.3   307  LEU307      0.0001
    151  CD2       21.7460   20.4790  -38.6000 C.3   307  LEU307      0.0001
    152  N         18.5470   24.7800  -35.4740 N.3   309  LEU309     -0.1245
    153  CA        17.5390   23.8790  -34.9390 C.3   309  LEU309      0.1561
    154  C         16.5000   24.6870  -34.1730 C.2   309  LEU309      0.2260
    155  O         16.8180   25.3550  -33.1870 O.2   309  LEU309     -0.2867
    156  CB        18.1900   22.8510  -34.0110 C.3   309  LEU309      0.0270
    157  CG        19.2570   21.9550  -34.6460 C.3   309  LEU309      0.0019
    158  CD1       19.8950   21.0990  -33.5710 C.3   309  LEU309      0.0001
    159  CD2       18.6340   21.0860  -35.7290 C.3   309  LEU309      0.0001
    160  N         13.6860   25.7720  -31.6340 N.3   311  GLN311     -0.1245
    161  CA        13.4120   25.3900  -30.2560 C.3   311  GLN311      0.1566
    162  C         12.0870   25.9320  -29.7400 C.2   311  GLN311      0.2260
    163  O         11.9850   27.0960  -29.3520 O.2   311  GLN311     -0.2867
    164  CB        14.5420   25.8530  -29.3320 C.3   311  GLN311      0.0367
    165  CG        15.8110   25.0220  -29.4270 C.3   311  GLN311      0.0905
    166  CD        16.8230   25.3850  -28.3560 C.2   311  GLN311      0.2608
    167  OE1       17.3030   26.5170  -28.2960 O.2   311  GLN311     -0.2717
    168  NE2       17.1490   24.4230  -27.5000 N.am  311  GLN311     -0.0878
    169  N          9.3940   24.5110  -27.0550 N.3   313  TYR313     -0.1241
    170  CA         8.9180   23.5210  -26.1030 C.3   313  TYR313      0.1605
    171  C          7.8350   24.1540  -25.2440 C.2   313  TYR313      0.2264
    172  O          7.3680   25.2560  -25.5290 O.2   313  TYR313     -0.2867
    173  CB        10.0660   23.0380  -25.2120 C.3   313  TYR313      0.0534
    174  CG        11.3920   22.9100  -25.9260 C.ar  313  TYR313     -0.0201
    175  CD1       12.2000   24.0280  -26.1400 C.ar  313  TYR313     -0.0009
    176  CD2       11.8380   21.6770  -26.3980 C.ar  313  TYR313     -0.0009
    177  CE1       13.4190   23.9200  -26.8040 C.ar  313  TYR313      0.0417
    178  CE2       13.0560   21.5570  -27.0650 C.ar  313  TYR313      0.0417
    179  CZ        13.8410   22.6830  -27.2640 C.ar  313  TYR313      0.1957
    180  OH        15.0430   22.5720  -27.9270 O.3   313  TYR313     -0.2866
    181  N          7.3390   22.4150  -18.1840 N.3   316  ILE316     -0.1245
    182  CA         7.1200   21.1060  -17.5920 C.3   316  ILE316      0.1561
    183  C          6.8390   21.2800  -16.1050 C.2   316  ILE316      0.2260
    184  O          7.5280   22.0320  -15.4170 O.2   316  ILE316     -0.2867
    185  CB         8.3590   20.1950  -17.7680 C.3   316  ILE316      0.0252
    186  CG1        8.4820   19.7690  -19.2320 C.3   316  ILE316      0.0019
    187  CG2        8.2570   18.9760  -16.8550 C.3   316  ILE316      0.0019
    188  CD1        9.7000   18.9190  -19.5240 C.3   316  ILE316      0.0001
@<TRIPOS>BOND
     1   142   141    1
     2   143   141    1
     3   141   140    1
     4   140   137    1
     5   137   136    1
     6   137   138    1
     7    77    75    1
     8    46    45    2
     9   138   139    2
    10    45    44    1
    11    73    72    2
    12    75    76    1
    13    75    74    1
    14    72    71    1
    15   134   132   ar
    16   134   135   ar
    17    49    48    1
    18   128   127    2
    19    48    50    1
    20    48    47    1
    21   132   130   ar
    22   135   133   ar
    23    74    71    1
    24    44    43    1
    25    44    47    1
    26   130   129    1
    27   130   131   ar
    28   133   131   ar
    29    71    70    1
    30   129   126    1
    31   127   126    1
    32   150   149    1
    33   144   145    1
    34   145   148    1
    35   145   146    1
    36   148   149    1
    37   126   125    1
    38   149   151    1
    39   146   147    2
    40    51    52    1
    41   121   120    2
    42    56    58    1
    43    56    55    1
    44    39    38    2
    45    52    55    1
    46    52    53    1
    47    38    37    1
    48    55    57    1
    49   120   119    1
    50    53    54    2
    51   159   157    1
    52   152   153    1
    53   122   119    1
    54   122   123    1
    55   122   124    1
    56   118   119    1
    57    37    36    1
    58    37    40    1
    59   153   154    1
    60   153   156    1
    61    41    40    1
    62   157   156    1
    63   157   158    1
    64    42    40    1
    65   154   155    2
    66   113   112    2
    67    68    69   ar
    68    68    66   ar
    69   112   111    1
    70    69    67   ar
    71    66    64   ar
    72    59    60    1
    73    35    33    1
    74   110   111    1
    75   111   114    1
    76   160   161    1
    77    60    61    1
    78    60    63    1
    79    31    30    2
    80    67    65   ar
    81    64    65   ar
    82    64    63    1
    83    30    29    1
    84    33    34    1
    85    33    32    1
    86    78    79    1
    87   114   115    1
    88    84    82    1
    89    61    62    2
    90    79    82    1
    91    79    80    1
    92   117   116    1
    93   161   162    1
    94   161   164    1
    95   115   116    1
    96    32    29    1
    97    82    83    1
    98    80    81    2
    99    29    28    1
   100   162   163    2
   101   165   164    1
   102   165   166    1
   103   166   167    2
   104   166   168   am
   105   180   179    1
   106   179   178   ar
   107   179   177   ar
   108   178   176   ar
   109   169   170    1
   110   177   175   ar
   111    26    25    1
   112    85    86    1
   113   176   174   ar
   114    25    27    1
   115    25    24    1
   116   175   174   ar
   117   170   171    1
   118   170   173    1
   119    23    22    2
   120   174   173    1
   121    91    93   ar
   122    91    90   ar
   123    86    89    1
   124    86    87    1
   125    22    21    1
   126    89    90    1
   127   172   171    2
   128    93    95   ar
   129    90    92   ar
   130    24    21    1
   131    21    20    1
   132    87    88    2
   133    95    94   ar
   134    92    94   ar
   135    99    98    2
   136    12    13    1
   137    98    97    1
   138   108   106   ar
   139   108   109   ar
   140    18    17    1
   141   106   103   ar
   142    16    13    1
   143    16    17    1
   144    13    14    1
   145    19    17    1
   146   100    97    1
   147   100   101    1
   148   109   107   ar
   149   103   101   ar
   150   103   105   ar
   151    10    11   ar
   152    10     8   ar
   153    97    96    1
   154    11     9   ar
   155   101   102   ar
   156   107   105   ar
   157   105   104   ar
   158    14    15    2
   159     8     6   ar
   160   102   104   ar
   161     9     7   ar
   162   188   186    1
   163   186   185    1
   164     6     7   ar
   165     6     5    1
   166   181   182    1
   167     4     3    2
   168     5     2    1
   169   185   182    1
   170   185   187    1
   171   182   183    1
   172     2     3    1
   173     2     1    1
   174   183   184    2
