@<TRIPOS>MOLECULE
tmp/3brzA02.pdb
 116 110 0 0 0
SMALL
GASTEIGER

@<TRIPOS>ATOM
      1  N         35.3010   34.1470   51.4560 N.3   272  LEU272     -0.1245
      2  CA        35.3800   33.0110   52.3540 C.3   272  LEU272      0.1561
      3  C         34.1460   32.1700   52.1150 C.2   272  LEU272      0.2260
      4  O         33.2880   32.5270   51.2990 O.2   272  LEU272     -0.2867
      5  CB        35.4070   33.4800   53.8050 C.3   272  LEU272      0.0270
      6  CG        34.1400   34.0850   54.4210 C.3   272  LEU272      0.0019
      7  CD1       34.5600   35.0980   55.4930 C.3   272  LEU272      0.0001
      8  CD2       33.2880   34.7680   53.3690 C.3   272  LEU272      0.0001
      9  N         31.9120   29.5740   54.8290 N.3   274  HIS274     -0.1241
     10  CA        31.7780   28.8540   56.0830 C.3   274  HIS274      0.1621
     11  C         30.6800   27.8040   56.0660 C.2   274  HIS274      0.2264
     12  O         29.6550   27.9530   55.4000 O.2   274  HIS274     -0.2867
     13  CB        31.5040   29.8200   57.2270 C.3   274  HIS274      0.0745
     14  CG        31.7370   29.2220   58.5730 C.ar  274  HIS274      0.0817
     15  ND1       31.3990   27.9170   58.8740 N.ar  274  HIS274     -0.2268
     16  CD2       32.2870   29.7330   59.6980 C.ar  274  HIS274      0.1154
     17  CE1       31.7330   27.6540   60.1200 C.ar  274  HIS274      0.1986
     18  NE2       32.2760   28.7400   60.6460 N.ar  274  HIS274     -0.2212
     19  N         29.0160   25.8340   59.1300 N.3   276  PHE276     -0.1241
     20  CA        28.8440   25.5780   60.5550 C.3   276  PHE276      0.1605
     21  C         27.7500   24.5370   60.7530 C.2   276  PHE276      0.2264
     22  O         27.0230   24.5620   61.7460 O.2   276  PHE276     -0.2867
     23  CB        28.4560   26.8810   61.2630 C.3   276  PHE276      0.0534
     24  CG        27.7980   27.8960   60.3530 C.ar  276  PHE276     -0.0203
     25  CD1       26.8530   27.5020   59.4040 C.ar  276  PHE276     -0.0042
     26  CD2       28.1240   29.2470   60.4470 C.ar  276  PHE276     -0.0042
     27  CE1       26.2540   28.4320   58.5690 C.ar  276  PHE276     -0.0003
     28  CE2       27.5250   30.1880   59.6130 C.ar  276  PHE276     -0.0003
     29  CZ        26.5890   29.7790   58.6730 C.ar  276  PHE276     -0.0000
     30  N         27.3230   28.5650   53.3010 N.3   282  VAL282     -0.1245
     31  CA        27.2620   30.0060   53.0860 C.3   282  VAL282      0.1561
     32  C         28.5410   30.5110   52.4080 C.2   282  VAL282      0.2260
     33  O         29.6280   29.9950   52.6500 O.2   282  VAL282     -0.2867
     34  CB        27.0230   30.7530   54.4300 C.3   282  VAL282      0.0252
     35  CG1       27.7300   32.0930   54.4540 C.3   282  VAL282      0.0019
     36  CG2       25.5550   30.9860   54.6090 C.3   282  VAL282      0.0019
     37  N         30.6520   34.2330   50.6410 N.3   284  ALA284     -0.1231
     38  CA        30.7140   35.6910   50.6540 C.3   284  ALA284      0.1694
     39  C         32.0270   36.2360   50.0850 C.2   284  ALA284      0.2592
     40  O         33.1100   35.9690   50.6190 O.2   284  ALA284     -0.2718
     41  CB        30.4990   36.2100   52.0770 C.3   284  ALA284      0.0304
     42  N         31.9240   37.0010   48.9990 N.am  285  ASP285     -0.1960
     43  CA        33.0930   37.5930   48.3580 C.3   285  ASP285      0.1840
     44  C         32.9120   39.0810   48.1370 C.2   285  ASP285      0.2621
     45  O         31.7900   39.5730   48.0200 O.2   285  ASP285     -0.2715
     46  CB        33.3510   36.9660   46.9870 C.3   285  ASP285      0.1450
     47  CG        33.4170   35.4580   47.0290 C.2   285  ASP285      0.3671
     48  OD1       33.7170   34.9090   48.1090 O.co2 285  ASP285     -0.2456
     49  OD2       33.1850   34.8190   45.9750 O.co2 285  ASP285     -0.2456
     50  N         34.0270   39.7980   48.0920 N.am  286  ILE286     -0.1977
     51  CA        34.0080   41.2210   47.7940 C.3   286  ILE286      0.1596
     52  C         34.8500   41.3280   46.5270 C.2   286  ILE286      0.2287
     53  O         35.9920   40.8580   46.4910 O.2   286  ILE286     -0.2864
     54  CB        34.6440   42.0760   48.8930 C.3   286  ILE286      0.0276
     55  CG1       33.7170   42.1480   50.1030 C.3   286  ILE286      0.0022
     56  CG2       34.8900   43.4800   48.3650 C.3   286  ILE286      0.0022
     57  CD1       34.1440   43.1880   51.1400 C.3   286  ILE286      0.0001
     58  N         32.9020   48.1860   43.2180 N.3   321  THR321     -0.1218
     59  CA        33.0840   47.2300   44.3000 C.3   321  THR321      0.1862
     60  C         31.8330   46.3700   44.4990 C.2   321  THR321      0.2287
     61  O         30.7860   46.8600   44.9290 O.2   321  THR321     -0.2866
     62  CB        33.4020   47.9580   45.6120 C.3   321  THR321      0.1770
     63  OG1       34.4460   48.9110   45.3880 O.3   321  THR321     -0.2211
     64  CG2       33.8570   46.9700   46.6660 C.3   321  THR321      0.0375
     65  N         29.8790   43.3120   46.3860 N.3   323  ALA323     -0.1231
     66  CA        29.8180   42.4980   47.5980 C.3   323  ALA323      0.1694
     67  C         28.7280   41.4780   47.3210 C.2   323  ALA323      0.2593
     68  O         27.7200   41.8090   46.6990 O.2   323  ALA323     -0.2718
     69  CB        29.4450   43.3500   48.7920 C.3   323  ALA323      0.0304
     70  N         28.9150   40.2400   47.7590 N.am  324  SER324     -0.1938
     71  CA        27.8950   39.2370   47.5010 C.3   324  SER324      0.2055
     72  C         27.9160   38.0250   48.4360 C.2   324  SER324      0.2642
     73  O         28.9720   37.4350   48.6690 O.2   324  SER324     -0.2714
     74  CB        27.9980   38.7830   46.0380 C.3   324  SER324      0.2130
     75  OG        29.3300   38.4680   45.6790 O.3   324  SER324     -0.2179
     76  N         26.7480   37.6640   48.9720 N.am  325  ILE325     -0.1977
     77  CA        26.6470   36.5100   49.8560 C.3   325  ILE325      0.1596
     78  C         25.9570   35.3760   49.1340 C.2   325  ILE325      0.2287
     79  O         25.1910   35.5960   48.2010 O.2   325  ILE325     -0.2864
     80  CB        25.8410   36.8000   51.1460 C.3   325  ILE325      0.0276
     81  CG1       24.4390   37.2820   50.7840 C.3   325  ILE325      0.0022
     82  CG2       26.5680   37.8150   52.0170 C.3   325  ILE325      0.0022
     83  CD1       23.5610   37.5820   51.9960 C.3   325  ILE325      0.0001
     84  N         22.5650   36.8890   47.0040 N.3   341  TYR341     -0.1241
     85  CA        22.2360   38.2690   46.6570 C.3   341  TYR341      0.1605
     86  C         23.5350   39.0690   46.4810 C.2   341  TYR341      0.2264
     87  O         24.5310   38.7680   47.1330 O.2   341  TYR341     -0.2867
     88  CB        21.3960   38.8390   47.7930 C.3   341  TYR341      0.0534
     89  CG        21.1760   40.3300   47.7950 C.ar  341  TYR341     -0.0201
     90  CD1       20.0750   40.9020   47.1590 C.ar  341  TYR341     -0.0009
     91  CD2       22.0150   41.1630   48.5260 C.ar  341  TYR341     -0.0009
     92  CE1       19.8110   42.2630   47.2660 C.ar  341  TYR341      0.0417
     93  CE2       21.7620   42.5220   48.6360 C.ar  341  TYR341      0.0417
     94  CZ        20.6600   43.0640   48.0110 C.ar  341  TYR341      0.1957
     95  OH        20.4140   44.4080   48.1680 O.3   341  TYR341     -0.2866
     96  N         24.9600   43.2130   45.9880 N.3   343  TYR343     -0.1241
     97  CA        24.8320   44.6490   45.8160 C.3   343  TYR343      0.1605
     98  C         26.1110   45.2220   45.2150 C.2   343  TYR343      0.2264
     99  O         27.1890   45.0560   45.7730 O.2   343  TYR343     -0.2867
    100  CB        24.5530   45.2960   47.1740 C.3   343  TYR343      0.0534
    101  CG        24.5890   46.8090   47.1790 C.ar  343  TYR343     -0.0201
    102  CD1       23.6630   47.5550   46.4450 C.ar  343  TYR343     -0.0009
    103  CD2       25.5550   47.4970   47.9120 C.ar  343  TYR343     -0.0009
    104  CE1       23.6980   48.9540   46.4400 C.ar  343  TYR343      0.0417
    105  CE2       25.6020   48.8910   47.9180 C.ar  343  TYR343      0.0417
    106  CZ        24.6710   49.6150   47.1780 C.ar  343  TYR343      0.1957
    107  OH        24.7230   50.9950   47.1640 O.3   343  TYR343     -0.2866
    108  N         28.5680   48.4260   43.7310 N.3   345  GLN345     -0.1245
    109  CA        28.8910   49.7900   44.1280 C.3   345  GLN345      0.1566
    110  C         30.1890   50.2610   43.4800 C.2   345  GLN345      0.2260
    111  O         30.4180   51.4600   43.3310 O.2   345  GLN345     -0.2867
    112  CB        29.0160   49.8630   45.6490 C.3   345  GLN345      0.0367
    113  CG        29.5120   51.1940   46.1810 C.3   345  GLN345      0.0905
    114  CD        29.7620   51.1630   47.6810 C.2   345  GLN345      0.2608
    115  OE1       30.1700   52.1650   48.2780 O.2   345  GLN345     -0.2717
    116  NE2       29.5200   50.0070   48.2970 N.am  345  GLN345     -0.0878
@<TRIPOS>BOND
     1    58    59    1
     2   111   110    2
     3   110   109    1
     4   108   109    1
     5   109   112    1
     6    59    60    1
     7    59    62    1
     8    60    61    2
     9    98    99    2
    10    98    97    1
    11    63    62    1
    12    62    64    1
    13   112   113    1
    14    75    74    1
    15    97    96    1
    16    97   100    1
    17    49    47   ar
    18    74    71    1
    19   113   114    1
    20    65    66    1
    21   104   102   ar
    22   104   106   ar
    23   102   101   ar
    24    86    85    1
    25    86    87    2
    26    53    52    2
    27    52    51    1
    28    85    84    1
    29    85    88    1
    30    68    67    2
    31    46    47    1
    32    46    43    1
    33    47    48   ar
    34    90    92   ar
    35    90    89   ar
    36   107   106    1
    37   100   101    1
    38   106   105   ar
    39   101   103   ar
    40    92    94   ar
    41    67    66    1
    42    67    70   am
    43    71    70    1
    44    71    72    1
    45    66    69    1
    46   114   115    2
    47   114   116   am
    48    88    89    1
    49    51    50    1
    50    51    54    1
    51    89    91   ar
    52   103   105   ar
    53    94    95    1
    54    94    93   ar
    55    45    44    2
    56    50    44   am
    57    44    43    1
    58    79    78    2
    59    43    42    1
    60    56    54    1
    61    72    73    2
    62    72    76   am
    63    91    93   ar
    64    54    55    1
    65    76    77    1
    66    42    39   am
    67    78    77    1
    68    77    80    1
    69    39    40    2
    70    39    38    1
    71    55    57    1
    72    37    38    1
    73    38    41    1
    74    81    80    1
    75    81    83    1
    76    80    82    1
    77     4     3    2
    78     1     2    1
    79     3     2    1
    80     2     5    1
    81    32    33    2
    82    32    31    1
    83    31    30    1
    84    31    34    1
    85     8     6    1
    86     5     6    1
    87     6     7    1
    88    34    35    1
    89    34    36    1
    90     9    10    1
    91    12    11    2
    92    11    10    1
    93    10    13    1
    94    13    14    1
    95    27    29   ar
    96    27    25   ar
    97    14    15   ar
    98    14    16   ar
    99    29    28   ar
   100    15    17   ar
   101    19    20    1
   102    25    24   ar
   103    28    26   ar
   104    16    18   ar
   105    17    18   ar
   106    24    26   ar
   107    24    23    1
   108    20    21    1
   109    20    23    1
   110    21    22    2
