@<TRIPOS>MOLECULE
tmp/3bs0A00.pdb
 119 108 0 0 0
SMALL
GASTEIGER

@<TRIPOS>ATOM
      1  N         11.3010   -6.7720   48.7320 N.3   161  SER161     -0.1217
      2  CA        12.1070   -6.1120   49.7450 C.3   161  SER161      0.1889
      3  C         13.5790   -6.5080   49.8620 C.2   161  SER161      0.2288
      4  O         14.4320   -5.6660   50.1700 O.2   161  SER161     -0.2866
      5  CB        11.4510   -6.2730   51.1000 C.3   161  SER161      0.2089
      6  OG        12.2680   -5.6720   52.0780 O.3   161  SER161     -0.2183
      7  N         15.5620   -4.4180   47.3520 N.3   164  VAL164     -0.1231
      8  CA        15.7280   -3.0170   47.7310 C.3   164  VAL164      0.1692
      9  C         16.6630   -2.9240   48.9240 C.2   164  VAL164      0.2592
     10  O         17.4470   -1.9810   49.0200 O.2   164  VAL164     -0.2718
     11  CB        14.4010   -2.3400   48.0880 C.3   164  VAL164      0.0266
     12  CG1       13.5210   -2.2340   46.8670 C.3   164  VAL164      0.0020
     13  CG2       13.7190   -3.1110   49.1630 C.3   164  VAL164      0.0020
     14  N         16.5910   -3.9030   49.8220 N.am  165  GLY165     -0.1957
     15  CA        17.4740   -3.9040   50.9770 C.3   165  GLY165      0.1869
     16  C         18.9450   -3.9400   50.5830 C.2   165  GLY165      0.2309
     17  O         19.7610   -3.2120   51.1340 O.2   165  GLY165     -0.2863
     18  N         19.9290   -0.6370   48.8430 N.3   168  THR168     -0.1218
     19  CA        20.0050    0.3160   49.9240 C.3   168  THR168      0.1862
     20  C         21.2700    0.0980   50.7270 C.2   168  THR168      0.2287
     21  O         22.0410    1.0340   50.9470 O.2   168  THR168     -0.2866
     22  CB        18.7740    0.1750   50.8420 C.3   168  THR168      0.1770
     23  OG1       17.6290    0.7270   50.1820 O.3   168  THR168     -0.2211
     24  CG2       18.9810    0.8940   52.1390 C.3   168  THR168      0.0375
     25  N         21.0040    2.6360   46.4590 N.3   173  LEU173     -0.1245
     26  CA        19.6660    3.2050   46.5430 C.3   173  LEU173      0.1561
     27  C         19.6340    4.2790   47.6310 C.2   173  LEU173      0.2260
     28  O         19.8830    4.0090   48.8050 O.2   173  LEU173     -0.2867
     29  CB        18.6470    2.1020   46.8280 C.3   173  LEU173      0.0270
     30  CG        17.2060    2.4960   46.5240 C.3   173  LEU173      0.0019
     31  CD1       16.4110    1.2660   46.1590 C.3   173  LEU173      0.0001
     32  CD2       16.6080    3.2200   47.7200 C.3   173  LEU173      0.0001
     33  N         13.3080    9.3440   50.5330 N.3   177  LEU177     -0.1231
     34  CA        12.1830    8.4090   50.6120 C.3   177  LEU177      0.1693
     35  C         12.6170    7.1090   51.2470 C.2   177  LEU177      0.2591
     36  O         11.7850    6.2980   51.6510 O.2   177  LEU177     -0.2718
     37  CB        11.5750    8.1390   49.2330 C.3   177  LEU177      0.0284
     38  CG        10.4400    9.0780   48.8100 C.3   177  LEU177      0.0019
     39  CD1        9.8620    8.6420   47.4640 C.3   177  LEU177      0.0001
     40  CD2        9.3570    9.0720   49.8950 C.3   177  LEU177      0.0001
     41  N         13.9260    6.9130   51.3470 N.am  178  VAL178     -0.1980
     42  CA        14.4270    5.6960   51.9570 C.3   178  VAL178      0.1595
     43  C         13.9460    5.6390   53.4000 C.2   178  VAL178      0.2287
     44  O         13.1970    4.7310   53.7540 O.2   178  VAL178     -0.2864
     45  CB        15.9690    5.6190   51.9230 C.3   178  VAL178      0.0276
     46  CG1       16.4550    4.4350   52.7490 C.3   178  VAL178      0.0022
     47  CG2       16.4460    5.5120   50.4980 C.3   178  VAL178      0.0022
     48  N          9.8060    5.4720   53.7350 N.3   181  LEU181     -0.1231
     49  CA         9.0670    4.2980   53.2850 C.3   181  LEU181      0.1693
     50  C          9.5960    2.9560   53.8240 C.2   181  LEU181      0.2592
     51  O          8.8470    1.9840   53.9440 O.2   181  LEU181     -0.2718
     52  CB         9.0380    4.2690   51.7510 C.3   181  LEU181      0.0284
     53  CG         8.3180    5.4680   51.1310 C.3   181  LEU181      0.0019
     54  CD1        8.4730    5.4450   49.6180 C.3   181  LEU181      0.0001
     55  CD2        6.8490    5.4370   51.5190 C.3   181  LEU181      0.0001
     56  N         10.8810    2.9210   54.1510 N.am  182  ALA182     -0.1966
     57  CA        11.5360    1.7160   54.6580 C.3   182  ALA182      0.1728
     58  C         10.7630    0.9290   55.7030 C.2   182  ALA182      0.2616
     59  O         10.7870   -0.3050   55.6920 O.2   182  ALA182     -0.2715
     60  CB        12.9070    2.0660   55.2060 C.3   182  ALA182      0.0334
     61  N         10.0900    1.6330   56.6090 N.am  183  GLY183     -0.1955
     62  CA         9.3220    0.9650   57.6450 C.3   183  GLY183      0.1869
     63  C          8.0550    0.3480   57.0890 C.2   183  GLY183      0.2309
     64  O          7.5660   -0.6690   57.5860 O.2   183  GLY183     -0.2863
     65  N          7.6370   -0.7380   53.8450 N.3   185  VAL185     -0.1231
     66  CA         8.0500   -1.8620   53.0250 C.3   185  VAL185      0.1692
     67  C          8.5320   -2.9880   53.9260 C.2   185  VAL185      0.2593
     68  O          8.1750   -4.1550   53.7420 O.2   185  VAL185     -0.2718
     69  CB         9.1780   -1.4370   52.0680 C.3   185  VAL185      0.0266
     70  CG1        9.8200   -2.6550   51.4340 C.3   185  VAL185      0.0020
     71  CG2        8.6240   -0.5150   50.9950 C.3   185  VAL185      0.0020
     72  N          9.3630   -2.6310   54.8920 N.am  186  GLY186     -0.1942
     73  CA         9.8640   -3.6070   55.8360 C.3   186  GLY186      0.2014
     74  C         10.6300   -4.8370   55.3650 C.2   186  GLY186      0.2639
     75  O         11.4630   -4.8010   54.4560 O.2   186  GLY186     -0.2714
     76  N         10.3320   -5.9490   56.0130 N.am  187  THR187     -0.1950
     77  CA        10.9940   -7.2060   55.7310 C.3   187  THR187      0.1897
     78  C         10.3000   -8.0290   54.6740 C.2   187  THR187      0.2313
     79  O         10.9520   -8.7140   53.8930 O.2   187  THR187     -0.2863
     80  CB        11.0750   -8.0730   56.9960 C.3   187  THR187      0.1794
     81  OG1       11.6490   -9.3370   56.6570 O.3   187  THR187     -0.2208
     82  CG2        9.6790   -8.3330   57.5640 C.3   187  THR187      0.0378
     83  N          8.6170   -2.7710   46.4500 N.3   191  ALA191     -0.1245
     84  CA         8.4380   -1.4390   45.9090 C.3   191  ALA191      0.1562
     85  C          8.1590   -1.6310   44.4350 C.2   191  ALA191      0.2260
     86  O          8.7200   -2.5100   43.7880 O.2   191  ALA191     -0.2867
     87  CB         9.6920   -0.6050   46.1040 C.3   191  ALA191      0.0290
     88  N          7.8260    0.1380   40.5570 N.3   193  PHE193     -0.1241
     89  CA         8.0690    1.2570   39.6940 C.3   193  PHE193      0.1605
     90  C          7.1790    1.1660   38.4740 C.2   193  PHE193      0.2264
     91  O          7.0960    0.1310   37.8460 O.2   193  PHE193     -0.2867
     92  CB         9.5290    1.2940   39.2870 C.3   193  PHE193      0.0534
     93  CG        10.3400    2.1970   40.1380 C.ar  193  PHE193     -0.0203
     94  CD1       11.1690    1.6900   41.1250 C.ar  193  PHE193     -0.0042
     95  CD2       10.2320    3.5620   39.9890 C.ar  193  PHE193     -0.0042
     96  CE1       11.8860    2.5330   41.9560 C.ar  193  PHE193     -0.0003
     97  CE2       10.9390    4.4170   40.8120 C.ar  193  PHE193     -0.0003
     98  CZ        11.7690    3.9010   41.8000 C.ar  193  PHE193     -0.0000
     99  N          5.9300    5.7280   41.9550 N.3   245  LEU245     -0.1245
    100  CA         6.7020    4.8880   42.8540 C.3   245  LEU245      0.1561
    101  C          5.6660    4.4180   43.8460 C.2   245  LEU245      0.2260
    102  O          4.9400    5.2230   44.4180 O.2   245  LEU245     -0.2867
    103  CB         7.7590    5.6860   43.5860 C.3   245  LEU245      0.0270
    104  CG         8.2880    4.8680   44.7560 C.3   245  LEU245      0.0019
    105  CD1        9.1530    3.7200   44.2380 C.3   245  LEU245      0.0001
    106  CD2        9.0760    5.7670   45.6920 C.3   245  LEU245      0.0001
    107  N          5.0710    1.8050   47.1750 N.3   247  ALA247     -0.1245
    108  CA         5.5840    0.9540   48.2190 C.3   247  ALA247      0.1562
    109  C          4.5120   -0.0330   48.6050 C.2   247  ALA247      0.2260
    110  O          3.3290    0.3020   48.5960 O.2   247  ALA247     -0.2867
    111  CB         5.9790    1.8110   49.4300 C.3   247  ALA247      0.0290
    112  N         13.7520    8.9690   45.3460 N.3   312  ILE312     -0.1245
    113  CA        14.6400    7.8380   45.5140 C.3   312  ILE312      0.1561
    114  C         15.5460    7.8410   44.3180 C.2   312  ILE312      0.2260
    115  O         15.1270    8.1150   43.1970 O.2   312  ILE312     -0.2867
    116  CB        13.8950    6.5190   45.6010 C.3   312  ILE312      0.0252
    117  CG1       12.7790    6.4960   44.5710 C.3   312  ILE312      0.0019
    118  CG2       13.3880    6.3080   47.0290 C.3   312  ILE312      0.0019
    119  CD1       11.8700    5.3120   44.7260 C.3   312  ILE312      0.0001
@<TRIPOS>BOND
     1    91    90    2
     2    90    89    1
     3    92    89    1
     4    92    93    1
     5    89    88    1
     6    95    93   ar
     7    95    97   ar
     8    93    94   ar
     9    97    98   ar
    10    94    96   ar
    11    98    96   ar
    12    99   100    1
    13   100   103    1
    14   100   101    1
    15   115   114    2
    16   103   104    1
    17    86    85    2
    18   101   102    2
    19   105   104    1
    20   114   113    1
    21    85    84    1
    22   117   119    1
    23   117   116    1
    24   104   106    1
    25   112   113    1
    26   113   116    1
    27   116   118    1
    28    84    87    1
    29    84    83    1
    30    31    30    1
    31    25    26    1
    32    30    29    1
    33    30    32    1
    34    26    29    1
    35    26    27    1
    36    12    11    1
    37   107   108    1
    38     7     8    1
    39    39    38    1
    40    27    28    2
    41     8    11    1
    42     8     9    1
    43    11    13    1
    44   108   109    1
    45   108   111    1
    46   110   109    2
    47     1     2    1
    48    38    37    1
    49    38    40    1
    50    18    19    1
    51     9    10    2
    52     9    14   am
    53    37    34    1
    54    54    53    1
    55     2     3    1
    56     2     5    1
    57    14    15    1
    58     3     4    2
    59    19    20    1
    60    19    22    1
    61    23    22    1
    62    47    45    1
    63    33    34    1
    64    16    15    1
    65    16    17    2
    66    34    35    1
    67    20    21    2
    68    22    24    1
    69    71    69    1
    70     5     6    1
    71    53    55    1
    72    53    52    1
    73    35    41   am
    74    35    36    2
    75    41    42    1
    76    70    69    1
    77    52    49    1
    78    45    42    1
    79    45    46    1
    80    42    43    1
    81    69    66    1
    82    66    65    1
    83    66    67    1
    84    49    48    1
    85    49    50    1
    86    43    44    2
    87    68    67    2
    88    50    51    2
    89    50    56   am
    90    79    78    2
    91    67    72   am
    92    56    57    1
    93    75    74    2
    94    57    60    1
    95    57    58    1
    96    78    77    1
    97    72    73    1
    98    74    73    1
    99    74    76   am
   100    59    58    2
   101    58    61   am
   102    77    76    1
   103    77    80    1
   104    61    62    1
   105    81    80    1
   106    80    82    1
   107    63    64    2
   108    63    62    1
