@<TRIPOS>MOLECULE
tmp/3bs0A01.pdb
 202 184 0 0 0
SMALL
GASTEIGER

@<TRIPOS>ATOM
      1  N         13.1610   -3.6440   23.1510 N.3    96  LEU96      -0.1245
      2  CA        12.8660   -4.1980   24.4530 C.3    96  LEU96       0.1561
      3  C         11.3600   -4.3130   24.4460 C.2    96  LEU96       0.2260
      4  O         10.6750   -3.5450   23.7690 O.2    96  LEU96      -0.2867
      5  CB        13.3010   -3.2170   25.5480 C.3    96  LEU96       0.0270
      6  CG        13.7350   -3.6990   26.9300 C.3    96  LEU96       0.0019
      7  CD1       13.7100   -2.5000   27.8600 C.3    96  LEU96       0.0001
      8  CD2       12.8220   -4.7960   27.4410 C.3    96  LEU96       0.0001
      9  N         10.7150   -0.5860   25.0460 N.3   123  LEU123     -0.1245
     10  CA        11.5500    0.5220   24.6310 C.3   123  LEU123      0.1561
     11  C         11.2650    0.7300   23.1570 C.2   123  LEU123      0.2260
     12  O         11.2690   -0.2230   22.3770 O.2   123  LEU123     -0.2867
     13  CB        13.0230    0.2020   24.8250 C.3   123  LEU123      0.0270
     14  CG        13.9390    1.3840   24.5030 C.3   123  LEU123      0.0019
     15  CD1       14.0070    2.3380   25.6870 C.3   123  LEU123      0.0001
     16  CD2       15.3030    0.8780   24.1980 C.3   123  LEU123      0.0001
     17  N         13.2010    8.3140   21.6900 N.3   151  THR151     -0.1218
     18  CA        13.1050    7.1070   22.4950 C.3   151  THR151      0.1862
     19  C         12.0330    7.2430   23.5320 C.2   151  THR151      0.2287
     20  O         11.8820    8.2870   24.1450 O.2   151  THR151     -0.2866
     21  CB        14.4120    6.7990   23.2440 C.3   151  THR151      0.1770
     22  OG1       15.4840    7.5800   22.7030 O.3   151  THR151     -0.2211
     23  CG2       14.7540    5.3340   23.1010 C.3   151  THR151      0.0375
     24  N         10.2220    4.9920   26.8640 N.3   153  LEU153     -0.1245
     25  CA        10.4180    3.8620   27.7590 C.3   153  LEU153      0.1561
     26  C          9.2320    3.5970   28.6490 C.2   153  LEU153      0.2260
     27  O          8.8740    4.4360   29.4600 O.2   153  LEU153     -0.2867
     28  CB        11.6280    4.0450   28.6780 C.3   153  LEU153      0.0270
     29  CG        11.5760    2.9430   29.7510 C.3   153  LEU153      0.0019
     30  CD1       11.6740    1.6000   29.0430 C.3   153  LEU153      0.0001
     31  CD2       12.6780    3.0700   30.8130 C.3   153  LEU153      0.0001
     32  N          7.7620    1.0860   31.5580 N.3   155  LEU155     -0.1245
     33  CA         8.2600    0.1890   32.5720 C.3   155  LEU155      0.1561
     34  C          7.1990   -0.0970   33.6270 C.2   155  LEU155      0.2260
     35  O          6.4140    0.7680   34.0000 O.2   155  LEU155     -0.2867
     36  CB         9.4700    0.8270   33.2510 C.3   155  LEU155      0.0270
     37  CG        10.7040    0.0130   33.6150 C.3   155  LEU155      0.0019
     38  CD1       11.4750    0.7630   34.6910 C.3   155  LEU155      0.0001
     39  CD2       10.3030   -1.3470   34.1100 C.3   155  LEU155      0.0001
     40  N          7.7410   -2.4290   37.0560 N.3   157  LEU157     -0.1245
     41  CA         8.7240   -3.2430   37.7670 C.3   157  LEU157      0.1561
     42  C          8.6240   -3.3550   39.3070 C.2   157  LEU157      0.2260
     43  O          8.7720   -2.3850   40.0310 O.2   157  LEU157     -0.2867
     44  CB        10.1120   -2.7380   37.4110 C.3   157  LEU157      0.0270
     45  CG        11.3390   -3.3210   38.1120 C.3   157  LEU157      0.0019
     46  CD1       11.5330   -4.7530   37.6880 C.3   157  LEU157      0.0001
     47  CD2       12.5670   -2.4890   37.7380 C.3   157  LEU157      0.0001
     48  N         10.1050   -4.8140   42.8400 N.3   159  LEU159     -0.1245
     49  CA        11.3240   -5.2690   43.4510 C.3   159  LEU159      0.1561
     50  C         10.9570   -5.6800   44.8620 C.2   159  LEU159      0.2260
     51  O         10.5650   -4.8440   45.6820 O.2   159  LEU159     -0.2867
     52  CB        12.3760   -4.1660   43.4960 C.3   159  LEU159      0.0270
     53  CG        12.9370   -3.7010   42.1380 C.3   159  LEU159      0.0019
     54  CD1       13.9480   -2.5600   42.3860 C.3   159  LEU159      0.0001
     55  CD2       13.5960   -4.8700   41.3850 C.3   159  LEU159      0.0001
     56  N         15.5880   -7.2870   47.4930 N.3   163  GLN163     -0.1245
     57  CA        16.3340   -6.5630   46.4530 C.3   163  GLN163      0.1566
     58  C         16.5760   -5.0900   46.8040 C.2   163  GLN163      0.2260
     59  O         17.6710   -4.5700   46.5860 O.2   163  GLN163     -0.2867
     60  CB        15.6390   -6.6650   45.0880 C.3   163  GLN163      0.0367
     61  CG        16.0840   -7.8700   44.2770 C.3   163  GLN163      0.0905
     62  CD        15.6110   -7.8250   42.8290 C.2   163  GLN163      0.2608
     63  OE1       14.4360   -8.0580   42.5350 O.2   163  GLN163     -0.2717
     64  NE2       16.5300   -7.5180   41.9140 N.am  163  GLN163     -0.0878
     65  N         20.2090   -3.0780   47.6360 N.3   167  LEU167     -0.1245
     66  CA        20.5680   -1.8730   46.8940 C.3   167  LEU167      0.1561
     67  C         20.8790   -0.8040   47.9260 C.2   167  LEU167      0.2260
     68  O         21.9370   -0.1750   47.8990 O.2   167  LEU167     -0.2867
     69  CB        19.4020   -1.4300   46.0060 C.3   167  LEU167      0.0270
     70  CG        19.2850   -2.2990   44.7600 C.3   167  LEU167      0.0019
     71  CD1       18.1040   -1.8780   43.9270 C.3   167  LEU167      0.0001
     72  CD2       20.5750   -2.1710   43.9560 C.3   167  LEU167      0.0001
     73  N          7.8260    0.1380   40.5570 N.3   193  PHE193     -0.1241
     74  CA         8.0690    1.2570   39.6940 C.3   193  PHE193      0.1605
     75  C          7.1790    1.1660   38.4740 C.2   193  PHE193      0.2264
     76  O          7.0960    0.1310   37.8460 O.2   193  PHE193     -0.2867
     77  CB         9.5290    1.2940   39.2870 C.3   193  PHE193      0.0534
     78  CG        10.3400    2.1970   40.1380 C.ar  193  PHE193     -0.0203
     79  CD1       11.1690    1.6900   41.1250 C.ar  193  PHE193     -0.0042
     80  CD2       10.2320    3.5620   39.9890 C.ar  193  PHE193     -0.0042
     81  CE1       11.8860    2.5330   41.9560 C.ar  193  PHE193     -0.0003
     82  CE2       10.9390    4.4170   40.8120 C.ar  193  PHE193     -0.0003
     83  CZ        11.7690    3.9010   41.8000 C.ar  193  PHE193     -0.0000
     84  N          6.0170    3.1820   34.8150 N.3   195  LEU195     -0.1245
     85  CA         6.1970    4.2000   33.7890 C.3   195  LEU195      0.1561
     86  C          5.2040    3.7630   32.7220 C.2   195  LEU195      0.2260
     87  O          5.5480    3.0740   31.7730 O.2   195  LEU195     -0.2867
     88  CB         7.6290    4.1710   33.2690 C.3   195  LEU195      0.0270
     89  CG         8.6630    4.8300   34.1860 C.3   195  LEU195      0.0019
     90  CD1        8.7210    4.1850   35.5690 C.3   195  LEU195      0.0001
     91  CD2       10.0060    4.7190   33.4970 C.3   195  LEU195      0.0001
     92  N         16.1150   10.3300   29.7750 N.3   239  LEU239     -0.1245
     93  CA        14.7530    9.9600   29.4560 C.3   239  LEU239      0.1561
     94  C         14.0250   10.5660   30.6450 C.2   239  LEU239      0.2260
     95  O         14.4480   10.3740   31.7860 O.2   239  LEU239     -0.2867
     96  CB        14.5440    8.4480   29.4800 C.3   239  LEU239      0.0270
     97  CG        15.0540    7.5270   28.3820 C.3   239  LEU239      0.0019
     98  CD1       14.3410    6.1720   28.5390 C.3   239  LEU239      0.0001
     99  CD2       14.7810    8.1180   27.0140 C.3   239  LEU239      0.0001
    100  N         10.7310   11.2050   36.9160 N.3   261  ILE261     -0.1245
    101  CA        11.7560   10.1810   36.8860 C.3   261  ILE261      0.1561
    102  C         12.6350   10.4510   35.7030 C.2   261  ILE261      0.2260
    103  O         12.1590   10.8360   34.6330 O.2   261  ILE261     -0.2867
    104  CB        11.1790    8.7470   36.7720 C.3   261  ILE261      0.0252
    105  CG1       12.2470    7.7310   37.1780 C.3   261  ILE261      0.0019
    106  CG2       10.7250    8.4510   35.3490 C.3   261  ILE261      0.0019
    107  CD1       11.7060    6.3200   37.4000 C.3   261  ILE261      0.0001
    108  N         16.0410    8.7530   33.6930 N.3   263  VAL263     -0.1245
    109  CA        16.9290    7.6350   33.5040 C.3   263  VAL263      0.1561
    110  C         18.1120    8.3280   32.8570 C.2   263  VAL263      0.2260
    111  O         18.1200    8.5850   31.6610 O.2   263  VAL263     -0.2867
    112  CB        16.2950    6.5900   32.5740 C.3   263  VAL263      0.0252
    113  CG1       17.2530    5.4500   32.3340 C.3   263  VAL263      0.0019
    114  CG2       15.0260    6.0490   33.2110 C.3   263  VAL263      0.0019
    115  N         23.1590    7.3660   29.3270 N.3   266  PHE266     -0.1227
    116  CA        23.1630    6.2330   28.4100 C.3   266  PHE266      0.1736
    117  C         23.0090    6.9550   27.1190 C.2   266  PHE266      0.2595
    118  O         22.2870    7.9460   27.0320 O.2   266  PHE266     -0.2718
    119  CB        21.9420    5.3560   28.4450 C.3   266  PHE266      0.0547
    120  CG        21.8150    4.5290   29.6310 C.ar  266  PHE266     -0.0202
    121  CD1       22.8730    3.7670   30.1120 C.ar  266  PHE266     -0.0042
    122  CD2       20.5670    4.4010   30.1960 C.ar  266  PHE266     -0.0042
    123  CE1       22.6560    2.8820   31.1250 C.ar  266  PHE266     -0.0003
    124  CE2       20.3430    3.5270   31.1990 C.ar  266  PHE266     -0.0003
    125  CZ        21.3720    2.7650   31.6630 C.ar  266  PHE266     -0.0000
    126  N         23.6440    6.4370   26.1000 N.am  267  GLU267     -0.1965
    127  CA        23.5440    7.0490   24.8100 C.3   267  GLU267      0.1733
    128  C         23.4690    5.8050   23.9680 C.2   267  GLU267      0.2616
    129  O         22.5270    5.0210   24.0690 O.2   267  GLU267     -0.2715
    130  CB        24.8190    7.8560   24.5630 C.3   267  GLU267      0.0429
    131  CG        25.9740    7.3750   25.4440 C.3   267  GLU267      0.1163
    132  CD        26.9560    8.4750   25.8230 C.2   267  GLU267      0.3649
    133  OE1       26.5290    9.4870   26.4280 O.co2 267  GLU267     -0.2457
    134  OE2       28.1610    8.3170   25.5250 O.co2 267  GLU267     -0.2457
    135  N         24.4920    5.6310   23.1600 N.am  268  MET268     -0.1977
    136  CA        24.6640    4.4850   22.2980 C.3   268  MET268      0.1605
    137  C         26.0670    4.8020   21.8270 C.2   268  MET268      0.2287
    138  O         26.3730    5.9390   21.4680 O.2   268  MET268     -0.2864
    139  CB        23.6570    4.4780   21.1440 C.3   268  MET268      0.0413
    140  CG        22.2470    4.0010   21.5160 C.3   268  MET268      0.0598
    141  SD        20.9630    4.6560   20.3980 S.3   268  MET268     -0.1393
    142  CE        21.2340    3.6840   18.8940 C.3   268  MET268      0.0692
    143  N         31.2050    0.0580   23.1750 N.3   295  TRP295     -0.1241
    144  CA        30.4940    0.1890   24.4440 C.3   295  TRP295      0.1605
    145  C         31.5010    0.5810   25.5100 C.2   295  TRP295      0.2264
    146  O         31.2960    1.5330   26.2650 O.2   295  TRP295     -0.2867
    147  CB        29.8170   -1.1280   24.8410 C.3   295  TRP295      0.0550
    148  CG        28.4030   -1.1920   24.3990 C.ar  295  TRP295      0.0003
    149  CD1       27.8630   -2.0510   23.4840 C.ar  295  TRP295      0.0946
    150  CD2       27.3450   -0.3120   24.7970 C.ar  295  TRP295      0.0152
    151  NE1       26.5350   -1.7550   23.2830 N.ar  295  TRP295     -0.2442
    152  CE2       26.1910   -0.6920   24.0760 C.ar  295  TRP295      0.0810
    153  CE3       27.2610    0.7670   25.6900 C.ar  295  TRP295      0.0012
    154  CZ2       24.9670   -0.0310   24.2180 C.ar  295  TRP295      0.0191
    155  CZ3       26.0420    1.4270   25.8290 C.ar  295  TRP295      0.0001
    156  CH2       24.9130    1.0240   25.0950 C.ar  295  TRP295      0.0015
    157  N         25.0290    5.0170   34.6910 N.3   301  MET301     -0.1245
    158  CA        23.7160    5.6440   34.6320 C.3   301  MET301      0.1570
    159  C         23.0370    5.6050   35.9900 C.2   301  MET301      0.2261
    160  O         23.5180    4.9750   36.9310 O.2   301  MET301     -0.2867
    161  CB        22.8040    4.9120   33.6600 C.3   301  MET301      0.0387
    162  CG        21.9850    3.8170   34.3520 C.3   301  MET301      0.0595
    163  SD        22.5020    2.1080   33.9430 S.3   301  MET301     -0.1393
    164  CE        24.1290    2.1140   34.3530 C.3   301  MET301      0.0692
    165  N         18.8300    6.6380   37.9260 N.3   303  VAL303     -0.1245
    166  CA        17.3920    6.6200   37.8590 C.3   303  VAL303      0.1561
    167  C         17.0580    7.5410   39.0010 C.2   303  VAL303      0.2260
    168  O         17.2080    7.1620   40.1540 O.2   303  VAL303     -0.2867
    169  CB        16.8240    5.2480   38.1980 C.3   303  VAL303      0.0252
    170  CG1       15.3160    5.3320   38.3380 C.3   303  VAL303      0.0019
    171  CG2       17.2200    4.2580   37.1550 C.3   303  VAL303      0.0019
    172  N         18.6120    5.6470   42.2220 N.3   314  VAL314     -0.1245
    173  CA        19.2860    4.3660   42.0650 C.3   314  VAL314      0.1561
    174  C         20.5320    4.5040   41.1940 C.2   314  VAL314      0.2260
    175  O         20.4660    4.9720   40.0630 O.2   314  VAL314     -0.2867
    176  CB        18.3570    3.2970   41.4630 C.3   314  VAL314      0.0252
    177  CG1       18.9500    1.9330   41.6950 C.3   314  VAL314      0.0019
    178  CG2       16.9720    3.3780   42.0900 C.3   314  VAL314      0.0019
    179  N         23.0870    2.3840   39.4260 N.3   316  LEU316     -0.1245
    180  CA        23.4600    1.0600   38.9280 C.3   316  LEU316      0.1561
    181  C         24.5480    1.1960   37.8480 C.2   316  LEU316      0.2260
    182  O         24.2780    1.5860   36.7250 O.2   316  LEU316     -0.2867
    183  CB        22.1890    0.3540   38.4220 C.3   316  LEU316      0.0270
    184  CG        21.1860    1.2550   37.7000 C.3   316  LEU316      0.0019
    185  CD1       21.6110    1.3030   36.3060 C.3   316  LEU316      0.0001
    186  CD2       19.7670    0.7370   37.7480 C.3   316  LEU316      0.0001
    187  N         17.7040   -9.6810   35.7630 N.3   351  LEU351     -0.1245
    188  CA        16.5870   -8.7180   35.6500 C.3   351  LEU351      0.1561
    189  C         15.6150   -9.0220   34.4950 C.2   351  LEU351      0.2260
    190  O         15.6770   -8.4270   33.4360 O.2   351  LEU351     -0.2867
    191  CB        17.1430   -7.2900   35.5150 C.3   351  LEU351      0.0270
    192  CG        16.2220   -6.0960   35.7750 C.3   351  LEU351      0.0019
    193  CD1       17.0440   -4.8310   35.8980 C.3   351  LEU351      0.0001
    194  CD2       15.2200   -5.9580   34.6510 C.3   351  LEU351      0.0001
    195  N         14.4620   -6.4730   31.6310 N.3   354  ILE354     -0.1245
    196  CA        15.4330   -5.9400   30.6800 C.3   354  ILE354      0.1561
    197  C         16.3660   -7.0780   30.3300 C.2   354  ILE354      0.2260
    198  O         17.4090   -7.2460   30.9570 O.2   354  ILE354     -0.2867
    199  CB        16.3040   -4.7890   31.2420 C.3   354  ILE354      0.0252
    200  CG1       15.4730   -3.5110   31.4220 C.3   354  ILE354      0.0019
    201  CG2       17.4550   -4.4960   30.2570 C.3   354  ILE354      0.0019
    202  CD1       14.5020   -3.5460   32.5770 C.3   354  ILE354      0.0001
@<TRIPOS>BOND
     1   142   141    1
     2   141   140    1
     3   139   140    1
     4   139   136    1
     5   138   137    2
     6    17    18    1
     7   137   136    1
     8   136   135    1
     9    12    11    2
    10    18    21    1
    11    18    19    1
    12    22    21    1
    13    23    21    1
    14     1     2    1
    15    11    10    1
    16   135   128   am
    17   143   144    1
    18   151   149   ar
    19   151   152   ar
    20   149   148   ar
    21    19    20    2
    22     4     3    2
    23   128   129    2
    24   128   127    1
    25   152   154   ar
    26   152   150   ar
    27    16    14    1
    28   154   156   ar
    29   148   150   ar
    30   148   147    1
    31   144   147    1
    32   144   145    1
    33     3     2    1
    34     2     5    1
    35    14    13    1
    36    14    15    1
    37   130   127    1
    38   130   131    1
    39    10    13    1
    40    10     9    1
    41   150   153   ar
    42   127   126    1
    43   156   155   ar
    44   131   132    1
    45   145   146    2
    46   134   132   ar
    47     5     6    1
    48   153   155   ar
    49   132   133   ar
    50   126   117   am
    51    24    25    1
    52     6     8    1
    53     6     7    1
    54    99    97    1
    55   118   117    2
    56   117   116    1
    57    25    26    1
    58    25    28    1
    59    97    98    1
    60    97    96    1
    61   116   119    1
    62   116   115    1
    63   119   120    1
    64    26    27    2
    65    28    29    1
    66    30    29    1
    67    93    96    1
    68    93    92    1
    69    93    94    1
    70   120   121   ar
    71   120   122   ar
    72    29    31    1
    73   121   123   ar
    74   122   124   ar
    75   201   199    1
    76   197   196    1
    77   197   198    2
    78    94    95    2
    79   196   199    1
    80   196   195    1
    81   123   125   ar
    82   124   125   ar
    83   199   200    1
    84   200   202    1
    85    32    33    1
    86   111   110    2
    87    87    86    2
    88   113   112    1
    89    33    36    1
    90    33    34    1
    91   112   114    1
    92   112   109    1
    93    86    85    1
    94   110   109    1
    95    36    37    1
    96    88    85    1
    97    88    89    1
    98   190   189    2
    99    91    89    1
   100   109   108    1
   101    37    39    1
   102    37    38    1
   103    34    35    2
   104   161   162    1
   105   161   158    1
   106    85    84    1
   107   163   162    1
   108   163   164    1
   109    89    90    1
   110   189   188    1
   111   158   157    1
   112   158   159    1
   113   103   102    2
   114   194   192    1
   115   106   104    1
   116   191   188    1
   117   191   192    1
   118   188   187    1
   119   102   101    1
   120   192   193    1
   121   159   160    2
   122   185   184    1
   123   182   181    2
   124   104   101    1
   125   104   105    1
   126   101   100    1
   127    40    41    1
   128   171   169    1
   129   105   107    1
   130    44    41    1
   131    44    45    1
   132    46    45    1
   133   184   186    1
   134   184   183    1
   135    47    45    1
   136    41    42    1
   137    76    75    2
   138   181   180    1
   139   166   165    1
   140   166   169    1
   141   166   167    1
   142   169   170    1
   143   183   180    1
   144    75    74    1
   145   180   179    1
   146   167   168    2
   147    77    74    1
   148    77    78    1
   149    42    43    2
   150    74    73    1
   151    80    78   ar
   152    80    82   ar
   153   175   174    2
   154    78    79   ar
   155    82    83   ar
   156    79    81   ar
   157   174   173    1
   158    55    53    1
   159   176   177    1
   160   176   173    1
   161   176   178    1
   162    83    81   ar
   163    64    62   am
   164   173   172    1
   165    53    54    1
   166    53    52    1
   167    63    62    2
   168    62    61    1
   169    48    49    1
   170    49    52    1
   171    49    50    1
   172    71    70    1
   173    72    70    1
   174    61    60    1
   175    70    69    1
   176    50    51    2
   177    60    57    1
   178    69    66    1
   179    57    58    1
   180    57    56    1
   181    59    58    2
   182    66    65    1
   183    66    67    1
   184    68    67    2
