@<TRIPOS>MOLECULE
tmp/3bs4A00.pdb
 237 228 0 0 0
SMALL
GASTEIGER

@<TRIPOS>ATOM
      1  N         24.6270   27.2230    8.6920 N.3    21  LEU21      -0.1245
      2  CA        23.2010   27.3870    8.4480 C.3    21  LEU21       0.1561
      3  C         22.4950   26.9410    9.7200 C.2    21  LEU21       0.2260
      4  O         22.7340   25.8310   10.2150 O.2    21  LEU21      -0.2867
      5  CB        22.7480   26.5160    7.2720 C.3    21  LEU21       0.0270
      6  CG        21.2460   26.4420    6.9760 C.3    21  LEU21       0.0019
      7  CD1       20.6260   27.8290    6.6960 C.3    21  LEU21       0.0001
      8  CD2       21.0470   25.4990    5.8070 C.3    21  LEU21       0.0001
      9  N         20.9830   40.2000    4.7640 N.3    52  GLY52      -0.1210
     10  CA        20.1410   39.9770    3.5960 C.3    52  GLY52       0.1956
     11  C         18.9480   39.1790    4.0870 C.2    52  GLY52       0.2612
     12  O         19.1320   38.2360    4.8600 O.2    52  GLY52      -0.2717
     13  N         17.7470   39.5740    3.6750 N.am   53  MET53      -0.1965
     14  CA        16.5250   38.8520    4.0540 C.3    53  MET53       0.1736
     15  C         15.8300   38.3200    2.8090 C.2    53  MET53       0.2616
     16  O         15.5920   39.0720    1.8550 O.2    53  MET53      -0.2715
     17  CB        15.5650   39.7940    4.7870 C.3    53  MET53       0.0427
     18  CG        14.3080   39.1170    5.3130 C.3    53  MET53       0.0599
     19  SD        13.1560   40.3560    5.9670 S.3    53  MET53      -0.1393
     20  CE        14.3610   41.3870    6.8680 C.3    53  MET53       0.0692
     21  N         15.4840   37.0330    2.8340 N.am   54  PHE54      -0.1974
     22  CA        14.5930   36.4680    1.8150 C.3    54  PHE54       0.1639
     23  C         13.2160   36.4820    2.4270 C.2    54  PHE54       0.2290
     24  O         12.9010   35.6700    3.3000 O.2    54  PHE54      -0.2864
     25  CB        15.0540   35.0560    1.4400 C.3    54  PHE54       0.0560
     26  CG        16.4700   35.0400    0.9430 C.ar   54  PHE54      -0.0200
     27  CD1       16.7410   35.2990   -0.4020 C.ar   54  PHE54      -0.0042
     28  CD2       17.5180   34.8780    1.8320 C.ar   54  PHE54      -0.0042
     29  CE1       18.0610   35.3220   -0.8670 C.ar   54  PHE54      -0.0003
     30  CE2       18.8370   34.9130    1.3910 C.ar   54  PHE54      -0.0003
     31  CZ        19.1030   35.1350    0.0300 C.ar   54  PHE54      -0.0000
     32  N          9.8380   35.7010    2.2910 N.3    56  ILE56      -0.1245
     33  CA         9.0740   34.7250    1.5200 C.3    56  ILE56       0.1561
     34  C          7.6040   34.7050    1.9370 C.2    56  ILE56       0.2260
     35  O          6.7130   34.6050    1.0880 O.2    56  ILE56      -0.2867
     36  CB         9.6800   33.3070    1.7420 C.3    56  ILE56       0.0252
     37  CG1       11.1450   33.2410    1.2330 C.3    56  ILE56       0.0019
     38  CG2        8.8150   32.2000    1.1030 C.3    56  ILE56       0.0019
     39  CD1       12.0320   32.2610    2.0110 C.3    56  ILE56       0.0001
     40  N         19.5570   44.2790    2.8130 N.3    84  ALA84      -0.1245
     41  CA        19.0450   43.9930    1.4650 C.3    84  ALA84       0.1562
     42  C         17.8640   43.0520    1.6310 C.2    84  ALA84       0.2260
     43  O         17.9390   42.1220    2.4240 O.2    84  ALA84      -0.2867
     44  CB        20.1060   43.3460    0.6090 C.3    84  ALA84       0.0290
     45  N         15.1450   40.6040   -0.5300 N.3    86  VAL86      -0.1245
     46  CA        14.5200   40.0460   -1.7310 C.3    86  VAL86       0.1561
     47  C         13.0670   39.8150   -1.3480 C.2    86  VAL86       0.2260
     48  O         12.7650   38.9740   -0.4930 O.2    86  VAL86      -0.2867
     49  CB        15.1740   38.7380   -2.1860 C.3    86  VAL86       0.0252
     50  CG1       14.4800   38.1850   -3.4460 C.3    86  VAL86       0.0019
     51  CG2       16.6880   38.9130   -2.4180 C.3    86  VAL86       0.0019
     52  N         17.5150   33.8750   -7.5100 N.3   115  TYR115     -0.1241
     53  CA        18.0500   34.3150   -6.2150 C.3   115  TYR115      0.1605
     54  C         19.5430   34.6120   -6.3060 C.2   115  TYR115      0.2264
     55  O         20.0260   35.5940   -5.7340 O.2   115  TYR115     -0.2867
     56  CB        17.8600   33.2590   -5.1380 C.3   115  TYR115      0.0534
     57  CG        16.5510   33.3260   -4.3870 C.ar  115  TYR115     -0.0201
     58  CD1       16.0060   34.5420   -3.9680 C.ar  115  TYR115     -0.0009
     59  CD2       15.9160   32.1570   -4.0040 C.ar  115  TYR115     -0.0009
     60  CE1       14.7980   34.5790   -3.2400 C.ar  115  TYR115      0.0417
     61  CE2       14.7290   32.1810   -3.2890 C.ar  115  TYR115      0.0417
     62  CZ        14.1710   33.3790   -2.9230 C.ar  115  TYR115      0.1957
     63  OH        13.0080   33.3700   -2.1910 O.3   115  TYR115     -0.2866
     64  N         21.3630   38.0110   -5.1850 N.3   119  VAL119     -0.1245
     65  CA        22.3850   37.9910   -4.1590 C.3   119  VAL119      0.1561
     66  C         23.6920   38.5810   -4.6960 C.2   119  VAL119      0.2260
     67  O         24.3120   39.4150   -4.0270 O.2   119  VAL119     -0.2867
     68  CB        22.5730   36.5840   -3.5880 C.3   119  VAL119      0.0252
     69  CG1       23.7960   36.5560   -2.6740 C.3   119  VAL119      0.0019
     70  CG2       21.3050   36.1730   -2.8180 C.3   119  VAL119      0.0019
     71  N         23.4210   42.3660   -4.8040 N.3   122  HIS122     -0.1226
     72  CA        23.5640   42.9730   -3.4610 C.3   122  HIS122      0.1752
     73  C         25.0070   42.9860   -3.0400 C.2   122  HIS122      0.2595
     74  O         25.4900   43.9530   -2.4390 O.2   122  HIS122     -0.2718
     75  CB        22.9180   42.1450   -2.3390 C.3   122  HIS122      0.0759
     76  CG        21.4850   41.8070   -2.5260 C.ar  122  HIS122      0.0818
     77  ND1       20.6360   42.5200   -3.3400 N.ar  122  HIS122     -0.2268
     78  CD2       20.7360   40.8340   -1.9540 C.ar  122  HIS122      0.1154
     79  CE1       19.4260   41.9880   -3.2740 C.ar  122  HIS122      0.1986
     80  NE2       19.4610   40.9670   -2.4390 N.ar  122  HIS122     -0.2212
     81  N         25.6860   41.8640   -3.2610 N.am  123  LYS123     -0.1980
     82  CA        27.0390   41.7160   -2.7540 C.3   123  LYS123      0.1596
     83  C         27.9870   42.6050   -3.5500 C.2   123  LYS123      0.2287
     84  O         28.9900   43.0610   -3.0200 O.2   123  LYS123     -0.2864
     85  CB        27.5030   40.2610   -2.8350 C.3   123  LYS123      0.0298
     86  CG        26.8120   39.3680   -1.8170 C.3   123  LYS123      0.0038
     87  CD        27.5640   38.0630   -1.6530 C.3   123  LYS123      0.0206
     88  CE        26.8310   37.1020   -0.6950 C.3   123  LYS123      0.1093
     89  NZ        27.5850   35.8160   -0.6260 N.3   123  LYS123     -0.1314
     90  N         27.7000   45.9630   -1.8590 N.3   126  TRP126     -0.1241
     91  CA        28.4430   45.9490   -0.6040 C.3   126  TRP126      0.1605
     92  C         29.9340   45.9900   -0.8420 C.2   126  TRP126      0.2264
     93  O         30.6670   46.6880   -0.1190 O.2   126  TRP126     -0.2867
     94  CB        28.0960   44.7030    0.2130 C.3   126  TRP126      0.0550
     95  CG        26.7430   44.7820    0.8730 C.ar  126  TRP126      0.0003
     96  CD1       26.1430   45.8930    1.3780 C.ar  126  TRP126      0.0946
     97  CD2       25.8600   43.6870    1.1540 C.ar  126  TRP126      0.0152
     98  NE1       24.9290   45.5680    1.9440 N.ar  126  TRP126     -0.2442
     99  CE2       24.7320   44.2170    1.8200 C.ar  126  TRP126      0.0810
    100  CE3       25.9130   42.3110    0.9010 C.ar  126  TRP126      0.0012
    101  CZ2       23.6590   43.4210    2.2320 C.ar  126  TRP126      0.0191
    102  CZ3       24.8420   41.5210    1.3080 C.ar  126  TRP126      0.0001
    103  CH2       23.7370   42.0780    1.9690 C.ar  126  TRP126      0.0015
    104  N         28.2830   39.2220    7.6240 N.3   137  LEU137     -0.1245
    105  CA        27.1000   39.1100    6.7720 C.3   137  LEU137      0.1561
    106  C         26.2070   37.9960    7.2940 C.2   137  LEU137      0.2260
    107  O         26.6670   36.8740    7.5440 O.2   137  LEU137     -0.2867
    108  CB        27.4820   38.8170    5.3160 C.3   137  LEU137      0.0270
    109  CG        26.3470   38.5560    4.3170 C.3   137  LEU137      0.0019
    110  CD1       25.4100   39.7620    4.1620 C.3   137  LEU137      0.0001
    111  CD2       26.9170   38.1170    2.9600 C.3   137  LEU137      0.0001
    112  N         22.2770   36.0810    6.6880 N.3   139  GLY139     -0.1210
    113  CA        21.0570   35.9400    5.8830 C.3   139  GLY139      0.1956
    114  C         19.9430   35.3870    6.7430 C.2   139  GLY139      0.2612
    115  O         20.1900   34.6210    7.6930 O.2   139  GLY139     -0.2717
    116  N         18.7200   35.8080    6.4300 N.am  140  PHE140     -0.1962
    117  CA        17.5220   35.2880    7.1100 C.3   140  PHE140      0.1771
    118  C         16.4960   34.9240    6.0730 C.2   140  PHE140      0.2619
    119  O         16.2070   35.7590    5.2090 O.2   140  PHE140     -0.2715
    120  CB        16.9400   36.3550    8.0380 C.3   140  PHE140      0.0574
    121  CG        17.8320   36.6750    9.2080 C.ar  140  PHE140     -0.0200
    122  CD1       17.6030   36.0870   10.4430 C.ar  140  PHE140     -0.0042
    123  CD2       18.9210   37.5400    9.0680 C.ar  140  PHE140     -0.0042
    124  CE1       18.4350   36.3460   11.5300 C.ar  140  PHE140     -0.0003
    125  CE2       19.7680   37.8100   10.1610 C.ar  140  PHE140     -0.0003
    126  CZ        19.5200   37.2130   11.3890 C.ar  140  PHE140     -0.0000
    127  N         15.9600   33.6990    6.1220 N.am  141  ALA141     -0.1977
    128  CA        14.8640   33.3060    5.2040 C.3   141  ALA141      0.1597
    129  C         13.5800   33.0920    6.0080 C.2   141  ALA141      0.2287
    130  O         13.4970   32.1430    6.8080 O.2   141  ALA141     -0.2864
    131  CB        15.2270   32.0220    4.4310 C.3   141  ALA141      0.0319
    132  N         10.8810   29.2760    5.3580 N.3   144  MET144     -0.1245
    133  CA        11.2970   28.4040    4.2780 C.3   144  MET144      0.1570
    134  C          9.9980   27.5450    4.1120 C.2   144  MET144      0.2261
    135  O          9.7040   26.9960    3.0380 O.2   144  MET144     -0.2867
    136  CB        12.4230   27.4820    4.7320 C.3   144  MET144      0.0387
    137  CG        13.7950   28.1620    4.7300 C.3   144  MET144      0.0595
    138  SD        14.3350   28.6870    3.0760 S.3   144  MET144     -0.1393
    139  CE        14.6030   27.0350    2.3460 C.3   144  MET144      0.0692
    140  N          7.4000   28.1490    1.1060 N.3   147  TYR147     -0.1241
    141  CA         7.4640   27.5770   -0.2490 C.3   147  TYR147      0.1605
    142  C          6.3460   26.5770   -0.5060 C.2   147  TYR147      0.2264
    143  O          5.9780   26.3750   -1.6420 O.2   147  TYR147     -0.2867
    144  CB         8.8320   26.9520   -0.5170 C.3   147  TYR147      0.0534
    145  CG         9.8950   28.0080   -0.6560 C.ar  147  TYR147     -0.0201
    146  CD1        9.7910   28.9850   -1.6470 C.ar  147  TYR147     -0.0009
    147  CD2       10.9950   28.0480    0.2220 C.ar  147  TYR147     -0.0009
    148  CE1       10.7590   29.9820   -1.7840 C.ar  147  TYR147      0.0417
    149  CE2       11.9680   29.0600    0.0930 C.ar  147  TYR147      0.0417
    150  CZ        11.8390   30.0050   -0.9100 C.ar  147  TYR147      0.1957
    151  OH        12.7660   31.0220   -1.0610 O.3   147  TYR147     -0.2866
    152  N         13.6770   21.7230   -5.3910 N.3   159  TYR159     -0.1227
    153  CA        14.1400   23.1050   -5.2560 C.3   159  TYR159      0.1736
    154  C         15.2980   23.2560   -4.2570 C.2   159  TYR159      0.2595
    155  O         16.2880   23.9600   -4.5220 O.2   159  TYR159     -0.2718
    156  CB        12.9570   23.9990   -4.8510 C.3   159  TYR159      0.0548
    157  CG        13.3850   25.3260   -4.3180 C.ar  159  TYR159     -0.0200
    158  CD1       13.8430   26.3290   -5.1790 C.ar  159  TYR159     -0.0009
    159  CD2       13.3680   25.5740   -2.9460 C.ar  159  TYR159     -0.0009
    160  CE1       14.2580   27.5590   -4.6870 C.ar  159  TYR159      0.0417
    161  CE2       13.7870   26.8090   -2.4350 C.ar  159  TYR159      0.0417
    162  CZ        14.2310   27.7920   -3.3290 C.ar  159  TYR159      0.1957
    163  OH        14.6620   29.0240   -2.8810 O.3   159  TYR159     -0.2866
    164  N         15.1690   22.5890   -3.1100 N.am  160  LEU160     -0.1980
    165  CA        16.2090   22.6360   -2.0840 C.3   160  LEU160      0.1596
    166  C         17.5140   22.0900   -2.6280 C.2   160  LEU160      0.2287
    167  O         18.5820   22.6260   -2.3190 O.2   160  LEU160     -0.2864
    168  CB        15.8230   21.8690   -0.8080 C.3   160  LEU160      0.0297
    169  CG        14.6730   22.4820   -0.0020 C.3   160  LEU160      0.0022
    170  CD1       14.1400   21.4750    1.0440 C.3   160  LEU160      0.0001
    171  CD2       15.1340   23.7890    0.6610 C.3   160  LEU160      0.0001
    172  N         18.9230   24.4690   -5.4420 N.3   163  SER163     -0.1217
    173  CA        19.5030   25.6160   -4.7360 C.3   163  SER163      0.1889
    174  C         20.9060   25.3090   -4.2690 C.2   163  SER163      0.2288
    175  O         21.8160   26.1010   -4.4540 O.2   163  SER163     -0.2866
    176  CB        18.6490   25.9890   -3.5250 C.3   163  SER163      0.2089
    177  OG        17.3720   26.3610   -3.9380 O.3   163  SER163     -0.2183
    178  N         24.4130   27.1610   -5.5030 N.3   167  ARG167     -0.1245
    179  CA        25.3110   27.7620   -4.5200 C.3   167  ARG167      0.1563
    180  C         26.7280   27.1860   -4.5540 C.2   167  ARG167      0.2260
    181  O         27.6940   27.8750   -4.2370 O.2   167  ARG167     -0.2867
    182  CB        24.7250   27.6290   -3.1200 C.3   167  ARG167      0.0307
    183  CG        23.4020   28.3890   -2.9600 C.3   167  ARG167      0.0489
    184  CD        22.9940   28.5210   -1.5000 C.3   167  ARG167      0.2205
    185  NE        22.5470   27.2530   -0.9310 N.pl3 167  ARG167     -0.0865
    186  CZ        21.2740   26.9250   -0.7150 C.cat 167  ARG167      0.5346
    187  NH1       20.2900   27.7800   -0.9920 N.pl3 167  ARG167      0.1354
    188  NH2       20.9890   25.7420   -0.1950 N.pl3 167  ARG167      0.1354
    189  N         28.4890   33.2110   -4.4390 N.3   173  TYR173     -0.1241
    190  CA        28.9770   32.4930   -3.2650 C.3   173  TYR173      0.1605
    191  C         30.4550   32.1750   -3.3110 C.2   173  TYR173      0.2264
    192  O         31.0550   31.8570   -2.2810 O.2   173  TYR173     -0.2867
    193  CB        28.1760   31.2080   -3.0690 C.3   173  TYR173      0.0534
    194  CG        26.7300   31.5350   -2.9940 C.ar  173  TYR173     -0.0201
    195  CD1       26.1990   32.0450   -1.8130 C.ar  173  TYR173     -0.0009
    196  CD2       25.9070   31.4370   -4.1140 C.ar  173  TYR173     -0.0009
    197  CE1       24.8970   32.3980   -1.7220 C.ar  173  TYR173      0.0417
    198  CE2       24.5650   31.8050   -4.0330 C.ar  173  TYR173      0.0417
    199  CZ        24.0840   32.2900   -2.8130 C.ar  173  TYR173      0.1957
    200  OH        22.7840   32.6650   -2.6540 O.3   173  TYR173     -0.2866
    201  N         31.0020   34.9240    2.1300 N.3   178  ARG178     -0.1231
    202  CA        29.7960   34.1550    2.3980 C.3   178  ARG178      0.1694
    203  C         29.1940   34.6020    3.7300 C.2   178  ARG178      0.2592
    204  O         29.8590   35.2420    4.5630 O.2   178  ARG178     -0.2718
    205  CB        30.1150   32.6510    2.4210 C.3   178  ARG178      0.0321
    206  CG        30.1640   31.9770    1.0340 C.3   178  ARG178      0.0489
    207  CD        30.4150   30.4600    1.1780 C.3   178  ARG178      0.2205
    208  NE        30.2540   29.6740   -0.0540 N.pl3 178  ARG178     -0.0865
    209  CZ        29.1610   28.9740   -0.3720 C.cat 178  ARG178      0.5346
    210  NH1       28.0990   28.9700    0.4340 N.pl3 178  ARG178      0.1354
    211  NH2       29.1150   28.2760   -1.5090 N.pl3 178  ARG178      0.1354
    212  N         27.9320   34.2670    3.9410 N.am  179  GLY179     -0.1957
    213  CA        27.2720   34.6700    5.1800 C.3   179  GLY179      0.1869
    214  C         27.0130   33.5240    6.1370 C.2   179  GLY179      0.2309
    215  O         27.3360   32.3580    5.8520 O.2   179  GLY179     -0.2863
    216  N         23.7040   32.0080    8.0320 N.3   181  ASN181     -0.1240
    217  CA        22.3120   32.0440    7.5780 C.3   181  ASN181      0.1653
    218  C         21.3650   31.4310    8.5680 C.2   181  ASN181      0.2266
    219  O         21.6720   30.4040    9.1630 O.2   181  ASN181     -0.2867
    220  CB        22.1990   31.3210    6.2350 C.3   181  ASN181      0.1155
    221  CG        22.8560   32.1160    5.1250 C.2   181  ASN181      0.2627
    222  OD1       22.2900   33.1010    4.6520 O.2   181  ASN181     -0.2716
    223  ND2       24.0620   31.7250    4.7420 N.am  181  ASN181     -0.0877
    224  N         17.3960   30.0770    8.8320 N.3   183  TRP183     -0.1241
    225  CA        16.1480   29.7110    8.1720 C.3   183  TRP183      0.1605
    226  C         15.0790   29.5730    9.2350 C.2   183  TRP183      0.2264
    227  O         15.3150   28.9460   10.2610 O.2   183  TRP183     -0.2867
    228  CB        16.2870   28.3360    7.5030 C.3   183  TRP183      0.0550
    229  CG        17.0350   28.3720    6.2240 C.ar  183  TRP183      0.0003
    230  CD1       17.5570   29.4860    5.6110 C.ar  183  TRP183      0.0946
    231  CD2       17.2930   27.2700    5.3490 C.ar  183  TRP183      0.0152
    232  NE1       18.1410   29.1360    4.4090 N.ar  183  TRP183     -0.2442
    233  CE2       17.9800   27.7850    4.2210 C.ar  183  TRP183      0.0810
    234  CE3       17.0280   25.8920    5.4120 C.ar  183  TRP183      0.0012
    235  CZ2       18.4180   26.9660    3.1660 C.ar  183  TRP183      0.0191
    236  CZ3       17.4680   25.0800    4.3600 C.ar  183  TRP183      0.0001
    237  CH2       18.1410   25.6290    3.2530 C.ar  183  TRP183      0.0015
@<TRIPOS>BOND
     1    52    53    1
     2    54    53    1
     3    54    55    2
     4    53    56    1
     5   178   179    1
     6   172   173    1
     7   152   153    1
     8   153   156    1
     9   153   154    1
    10    64    65    1
    11   158   160   ar
    12   158   157   ar
    13    56    57    1
    14   156   157    1
    15    71    72    1
    16   173   174    1
    17   173   176    1
    18    66    65    1
    19    66    67    2
    20   160   162   ar
    21   180   179    1
    22   180   181    2
    23   155   154    2
    24   179   182    1
    25   175   174    2
    26   189   190    1
    27    57    59   ar
    28    57    58   ar
    29   157   159   ar
    30   154   164   am
    31    65    68    1
    32   196   198   ar
    33   196   194   ar
    34   198   199   ar
    35    59    61   ar
    36    58    60   ar
    37   177   176    1
    38    68    70    1
    39    68    69    1
    40    83    84    2
    41    83    82    1
    42    72    73    1
    43    72    75    1
    44    50    49    1
    45    77    79   ar
    46    77    76   ar
    47   162   163    1
    48   162   161   ar
    49   191   190    1
    50   191   192    2
    51    61    62   ar
    52    79    80   ar
    53   190   193    1
    54    81    73   am
    55    81    82    1
    56    60    62   ar
    57   182   183    1
    58   164   165    1
    59   193   194    1
    60    73    74    2
    61   194   195   ar
    62   183   184    1
    63   159   161   ar
    64    62    63    1
    65    85    82    1
    66    85    86    1
    67   199   200    1
    68   199   197   ar
    69   166   167    2
    70   166   165    1
    71    76    75    1
    72    76    78   ar
    73    80    78   ar
    74    51    49    1
    75    49    46    1
    76   165   168    1
    77    90    91    1
    78    86    87    1
    79   195   197   ar
    80   148   146   ar
    81   148   150   ar
    82    46    47    1
    83    46    45    1
    84    87    88    1
    85   146   145   ar
    86   143   142    2
    87   211   209    1
    88   184   185    1
    89    47    48    2
    90   151   150    1
    91   187   186    1
    92   185   186    2
    93   150   149   ar
    94    29    27   ar
    95    29    31   ar
    96    92    91    1
    97    92    93    2
    98   168   169    1
    99   186   188    1
   100    88    89    1
   101   145   144    1
   102   145   147   ar
   103    91    94    1
   104   144   141    1
   105   142   141    1
   106    27    26   ar
   107   209   208    2
   108   209   210    1
   109   141   140    1
   110   208   207    1
   111   169   171    1
   112   169   170    1
   113    31    30   ar
   114   149   147   ar
   115    94    95    1
   116    44    41    1
   117    95    97   ar
   118    95    96   ar
   119   100    97   ar
   120   100   102   ar
   121    26    25    1
   122    26    28   ar
   123   206   207    1
   124   206   205    1
   125    35    34    2
   126    38    36    1
   127    97    99   ar
   128    37    36    1
   129    37    39    1
   130   102   103   ar
   131    96    98   ar
   132    30    28   ar
   133    25    22    1
   134    41    42    1
   135    41    40    1
   136    33    36    1
   137    33    34    1
   138    33    32    1
   139    42    43    2
   140    22    23    1
   141    22    21    1
   142    99    98   ar
   143    99   101   ar
   144    16    15    2
   145   103   101   ar
   146   201   202    1
   147   139   138    1
   148   202   205    1
   149   202   203    1
   150    23    24    2
   151    15    21   am
   152    15    14    1
   153   111   109    1
   154   135   134    2
   155   138   137    1
   156   235   237   ar
   157   235   233   ar
   158   237   236   ar
   159    10    11    1
   160    10     9    1
   161    13    14    1
   162    13    11   am
   163   203   212   am
   164   203   204    2
   165   212   213    1
   166    14    17    1
   167    11    12    2
   168   134   133    1
   169   110   109    1
   170   233   232   ar
   171   233   231   ar
   172   133   136    1
   173   133   132    1
   174   109   108    1
   175   236   234   ar
   176   232   230   ar
   177   131   128    1
   178   222   221    2
   179   137   136    1
   180   223   221   am
   181    17    18    1
   182   221   220    1
   183   213   214    1
   184   128   129    1
   185   128   127    1
   186   119   118    2
   187    18    19    1
   188   108   105    1
   189   231   234   ar
   190   231   229   ar
   191   230   229   ar
   192     8     6    1
   193   215   214    2
   194   113   112    1
   195   113   114    1
   196    19    20    1
   197   129   130    2
   198   118   127   am
   199   118   117    1
   200   229   228    1
   201   220   217    1
   202   116   114   am
   203   116   117    1
   204     7     6    1
   205   114   115    2
   206   105   106    1
   207   105   104    1
   208     6     5    1
   209   117   120    1
   210     5     2    1
   211   106   107    2
   212   228   225    1
   213   217   216    1
   214   217   218    1
   215   120   121    1
   216   225   224    1
   217   225   226    1
   218     2     1    1
   219     2     3    1
   220   218   219    2
   221   123   121   ar
   222   123   125   ar
   223   121   122   ar
   224   226   227    2
   225     3     4    2
   226   125   126   ar
   227   122   124   ar
   228   126   124   ar
