@<TRIPOS>MOLECULE
tmp/3bs6A01.pdb
 90 87 0 0 0
SMALL
GASTEIGER

@<TRIPOS>ATOM
      1  N         52.7030   16.1900   46.8160 N.3   194  HIS194     -0.1226
      2  CA        52.7030   15.0900   47.7730 C.3   194  HIS194      0.1752
      3  C         52.0100   13.9040   47.1240 C.2   194  HIS194      0.2596
      4  O         50.7970   13.7260   47.2180 O.2   194  HIS194     -0.2718
      5  CB        52.0020   15.4800   49.0660 C.3   194  HIS194      0.0759
      6  CG        52.5460   16.7190   49.7030 C.ar  194  HIS194      0.0818
      7  ND1       53.8640   16.8440   50.0920 N.ar  194  HIS194     -0.2268
      8  CD2       51.9370   17.8730   50.0580 C.ar  194  HIS194      0.1154
      9  CE1       54.0420   18.0300   50.6420 C.ar  194  HIS194      0.1986
     10  NE2       52.8900   18.6710   50.6350 N.ar  194  HIS194     -0.2212
     11  N         52.7880   13.1100   46.4220 N.am  195  ASN195     -0.1960
     12  CA        52.2330   11.9250   45.7910 C.3   195  ASN195      0.1819
     13  C         53.3130   10.8590   45.6910 C.2   195  ASN195      0.2621
     14  O         54.4650   11.0860   46.1000 O.2   195  ASN195     -0.2715
     15  CB        51.6140   12.2800   44.4340 C.3   195  ASN195      0.1195
     16  CG        52.6300   12.8220   43.4730 C.2   195  ASN195      0.2630
     17  OD1       53.5310   12.1020   43.0710 O.2   195  ASN195     -0.2716
     18  ND2       52.5000   14.0920   43.0970 N.am  195  ASN195     -0.0877
     19  N         52.9430    9.6930   45.1830 N.am  196  ASP196     -0.1971
     20  CA        53.9030    8.5830   45.1130 C.3   196  ASP196      0.1709
     21  C         54.3810    8.3050   43.6890 C.2   196  ASP196      0.2293
     22  O         55.0670    7.2880   43.4490 O.2   196  ASP196     -0.2864
     23  CB        53.2980    7.3140   45.7150 C.3   196  ASP196      0.1436
     24  CG        53.3030    7.3260   47.2320 C.2   196  ASP196      0.3671
     25  OD1       54.1330    8.0320   47.8650 O.co2 196  ASP196     -0.2456
     26  OD2       52.4560    6.6260   47.8030 O.co2 196  ASP196     -0.2456
     27  N         46.8710   10.1300   37.5510 N.3   220  VAL220     -0.1231
     28  CA        46.2020    9.0050   38.1950 C.3   220  VAL220      0.1692
     29  C         44.8430    8.7990   37.5300 C.2   220  VAL220      0.2592
     30  O         44.3170    9.7260   36.9020 O.2   220  VAL220     -0.2718
     31  CB        46.0820    9.1970   39.7230 C.3   220  VAL220      0.0266
     32  CG1       47.4590    9.3790   40.3390 C.3   220  VAL220      0.0020
     33  CG2       45.2060   10.3740   40.0550 C.3   220  VAL220      0.0020
     34  N         44.2930    7.5840   37.6500 N.am  221  LEU221     -0.1966
     35  CA        42.9740    7.2820   37.0860 C.3   221  LEU221      0.1728
     36  C         41.9460    7.2790   38.2050 C.2   221  LEU221      0.2616
     37  O         42.1430    6.6090   39.2310 O.2   221  LEU221     -0.2715
     38  CB        42.9670    5.9130   36.3980 C.3   221  LEU221      0.0311
     39  CG        43.8330    5.6550   35.1700 C.3   221  LEU221      0.0022
     40  CD1       43.5600    4.2270   34.6450 C.3   221  LEU221      0.0001
     41  CD2       43.5920    6.7180   34.0910 C.3   221  LEU221      0.0001
     42  N         40.8790    8.0490   38.0500 N.am  222  VAL222     -0.1963
     43  CA        39.7790    7.9650   39.0080 C.3   222  VAL222      0.1727
     44  C         38.6990    7.1270   38.3150 C.2   222  VAL222      0.2616
     45  O         38.1570    7.5550   37.3040 O.2   222  VAL222     -0.2715
     46  CB        39.1900    9.3320   39.3970 C.3   222  VAL222      0.0290
     47  CG1       38.1110    9.1420   40.4770 C.3   222  VAL222      0.0023
     48  CG2       40.2630   10.2730   39.9140 C.3   222  VAL222      0.0023
     49  N         38.4140    5.9370   38.8450 N.am  223  GLN223     -0.1977
     50  CA        37.4470    5.0220   38.1990 C.3   223  GLN223      0.1601
     51  C         35.9930    5.5060   38.3390 C.2   223  GLN223      0.2287
     52  O         35.6820    6.2820   39.2410 O.2   223  GLN223     -0.2864
     53  CB        37.6150    3.5880   38.7410 C.3   223  GLN223      0.0394
     54  CG        38.9910    2.9450   38.4510 C.3   223  GLN223      0.0908
     55  CD        39.3010    2.7740   36.9590 C.2   223  GLN223      0.2608
     56  OE1       38.4020    2.7320   36.1190 O.2   223  GLN223     -0.2717
     57  NE2       40.5830    2.6770   36.6310 N.am  223  GLN223     -0.0878
     58  N         34.0450    6.4010   41.6130 N.3   226  GLN226     -0.1231
     59  CA        35.0810    6.5170   42.6600 C.3   226  GLN226      0.1698
     60  C         35.4620    7.9780   42.9210 C.2   226  GLN226      0.2593
     61  O         35.1630    8.8590   42.1120 O.2   226  GLN226     -0.2718
     62  CB        36.3040    5.6320   42.3440 C.3   226  GLN226      0.0381
     63  CG        35.8800    4.1780   42.0540 C.3   226  GLN226      0.0905
     64  CD        36.9660    3.1150   42.1710 C.2   226  GLN226      0.2608
     65  OE1       38.1710    3.3950   42.3230 O.2   226  GLN226     -0.2717
     66  NE2       36.5310    1.8550   42.0740 N.am  226  GLN226     -0.0878
     67  N         36.0720    8.2190   44.0770 N.am  227  THR227     -0.1939
     68  CA        36.5880    9.5370   44.4310 C.3   227  THR227      0.2028
     69  C         38.1090    9.4180   44.4960 C.2   227  THR227      0.2643
     70  O         38.6460    8.3860   44.9100 O.2   227  THR227     -0.2714
     71  CB        35.9680   10.0540   45.7460 C.3   227  THR227      0.1808
     72  OG1       34.5310   10.0080   45.6340 O.3   227  THR227     -0.2208
     73  CG2       36.3500   11.5240   46.0040 C.3   227  THR227      0.0379
     74  N         38.8070   10.4380   44.0010 N.am  228  GLY228     -0.1939
     75  CA        40.2570   10.4470   44.0500 C.3   228  GLY228      0.2014
     76  C         40.7510   11.6810   44.7610 C.2   228  GLY228      0.2638
     77  O         40.0120   12.6640   44.8530 O.2   228  GLY228     -0.2714
     78  N         41.9820   11.6410   45.2880 N.am  229  ALA229     -0.1977
     79  CA        42.4890   12.8060   46.0240 C.3   229  ALA229      0.1597
     80  C         43.9180   13.0850   45.6050 C.2   229  ALA229      0.2287
     81  O         44.6770   12.1470   45.3270 O.2   229  ALA229     -0.2864
     82  CB        42.4570   12.5680   47.5500 C.3   229  ALA229      0.0319
     83  N         47.2340   15.9310   46.5940 N.3   230  ASN230     -0.1240
     84  CA        47.6730   16.8520   47.6490 C.3   230  ASN230      0.1653
     85  C         48.9530   17.5520   47.2180 C.2   230  ASN230      0.2266
     86  O         49.7890   16.9480   46.5470 O.2   230  ASN230     -0.2867
     87  CB        48.0550   16.0650   48.9020 C.3   230  ASN230      0.1155
     88  CG        46.8800   15.7240   49.7900 C.2   230  ASN230      0.2627
     89  OD1       45.7460   15.5110   49.3460 O.2   230  ASN230     -0.2716
     90  ND2       47.1650   15.6460   51.0830 N.am  230  ASN230     -0.0877
@<TRIPOS>BOND
     1    41    39    1
     2    40    39    1
     3    39    38    1
     4    56    55    2
     5    38    35    1
     6    57    55   am
     7    30    29    2
     8    55    54    1
     9    35    34    1
    10    35    36    1
    11    45    44    2
    12    29    34   am
    13    29    28    1
    14    27    28    1
    15    42    36   am
    16    42    43    1
    17    28    31    1
    18    50    51    1
    19    50    53    1
    20    50    49    1
    21    36    37    2
    22    44    49   am
    23    44    43    1
    24    51    52    2
    25    54    53    1
    26    43    46    1
    27    46    48    1
    28    46    47    1
    29    31    33    1
    30    31    32    1
    31    58    59    1
    32    63    64    1
    33    63    62    1
    34    66    64   am
    35    61    60    2
    36    64    65    2
    37    62    59    1
    38    59    60    1
    39    60    67   am
    40    17    16    2
    41    18    16   am
    42    22    21    2
    43    16    15    1
    44    21    20    1
    45    74    75    1
    46    74    69   am
    47    75    76    1
    48    67    68    1
    49    68    69    1
    50    68    71    1
    51    15    12    1
    52    69    70    2
    53    76    77    2
    54    76    78   am
    55    20    19    1
    56    20    23    1
    57    19    13   am
    58    78    79    1
    59    81    80    2
    60    80    79    1
    61    72    71    1
    62    13    12    1
    63    13    14    2
    64    23    24    1
    65    71    73    1
    66    12    11    1
    67    79    82    1
    68    11     3   am
    69    86    85    2
    70    83    84    1
    71     1     2    1
    72     3     4    2
    73     3     2    1
    74    85    84    1
    75    24    26   ar
    76    24    25   ar
    77    84    87    1
    78     2     5    1
    79    87    88    1
    80     5     6    1
    81    89    88    2
    82     6     8   ar
    83     6     7   ar
    84    88    90   am
    85     8    10   ar
    86     7     9   ar
    87    10     9   ar
