@<TRIPOS>MOLECULE
tmp/3bs6B01.pdb
 189 176 0 0 0
SMALL
GASTEIGER

@<TRIPOS>ATOM
      1  N         32.4710    5.9470   74.6490 N.3    20  ARG20      -0.1245
      2  CA        32.2560    6.5150   75.9770 C.3    20  ARG20       0.1563
      3  C         33.4090    7.5070   76.1670 C.2    20  ARG20       0.2260
      4  O         34.5190    7.0960   76.5230 O.2    20  ARG20      -0.2867
      5  CB        32.2990    5.4090   77.0590 C.3    20  ARG20       0.0307
      6  CG        31.9140    5.8820   78.4770 C.3    20  ARG20       0.0489
      7  CD        32.9100    5.3850   79.4830 C.3    20  ARG20       0.2205
      8  NE        34.2100    5.7930   78.9540 N.pl3  20  ARG20      -0.0865
      9  CZ        35.2700    5.0120   78.8050 C.cat  20  ARG20       0.5346
     10  NH1       35.2650    3.7540   79.2430 N.pl3  20  ARG20       0.1354
     11  NH2       36.3540    5.5230   78.2420 N.pl3  20  ARG20       0.1354
     12  N         43.3510    9.7120   76.6670 N.3    56  GLN56      -0.1245
     13  CA        41.9740   10.1230   76.9640 C.3    56  GLN56       0.1566
     14  C         41.8060   11.5980   76.6490 C.2    56  GLN56       0.2260
     15  O         42.7740   12.3750   76.7490 O.2    56  GLN56      -0.2867
     16  CB        41.6610    9.9040   78.4320 C.3    56  GLN56       0.0367
     17  CG        41.8080    8.4660   78.9030 C.3    56  GLN56       0.0905
     18  CD        41.8350    8.3780   80.4180 C.2    56  GLN56       0.2608
     19  OE1       42.7830    8.8450   81.0630 O.2    56  GLN56      -0.2717
     20  NE2       40.7990    7.7970   80.9900 N.am   56  GLN56      -0.0878
     21  N         35.8030   19.1700   80.0760 N.3    60  THR60      -0.1218
     22  CA        35.4140   19.3310   81.4580 C.3    60  THR60       0.1862
     23  C         35.0860   20.7980   81.7140 C.2    60  THR60       0.2287
     24  O         34.5920   21.4700   80.8030 O.2    60  THR60      -0.2866
     25  CB        36.4560   18.7280   82.4430 C.3    60  THR60       0.1770
     26  OG1       35.9480   18.8330   83.7770 O.3    60  THR60      -0.2211
     27  CG2       37.7450   19.4500   82.3760 C.3    60  THR60       0.0375
     28  N         32.1920   15.7210   80.0650 N.3    66  ASP66      -0.1239
     29  CA        33.1550   14.7710   80.6640 C.3    66  ASP66       0.1674
     30  C         33.5570   15.0820   82.1210 C.2    66  ASP66       0.2266
     31  O         34.3150   14.3150   82.7260 O.2    66  ASP66      -0.2867
     32  CB        34.4170   14.6470   79.8110 C.3    66  ASP66       0.1410
     33  CG        34.1250   14.1490   78.4030 C.2    66  ASP66       0.3668
     34  OD1       34.1080   12.9030   78.2130 O.co2  66  ASP66      -0.2456
     35  OD2       34.0010   15.0050   77.5050 O.co2  66  ASP66      -0.2456
     36  N         32.8350   14.6020   85.6410 N.3    68  PRO68      -0.2116
     37  CA        31.9760   13.5900   86.2740 C.3    68  PRO68       0.1372
     38  C         30.8390   14.1380   87.1250 C.2    68  PRO68       0.2244
     39  O         29.8570   13.4260   87.3520 O.2    68  PRO68      -0.2868
     40  CB        32.9510   12.7760   87.1390 C.3    68  PRO68       0.0268
     41  CG        34.1490   13.6080   87.2950 C.3    68  PRO68       0.0207
     42  CD        34.2400   14.4850   86.0710 C.3    68  PRO68       0.0892
     43  N         30.1980    9.7460   81.6560 N.3    73  ARG73      -0.1245
     44  CA        30.9100   10.2650   80.4460 C.3    73  ARG73       0.1563
     45  C         29.9050   10.1670   79.3010 C.2    73  ARG73       0.2260
     46  O         29.1610    9.1760   79.2250 O.2    73  ARG73      -0.2867
     47  CB        32.1450    9.4360   79.9830 C.3    73  ARG73       0.0307
     48  CG        33.4210    9.3230   80.8320 C.3    73  ARG73       0.0489
     49  CD        34.4250   10.4490   80.7920 C.3    73  ARG73       0.2205
     50  NE        35.0930   10.8350   79.5360 N.pl3  73  ARG73      -0.0865
     51  CZ        36.1740   10.2530   79.0290 C.cat  73  ARG73       0.5346
     52  NH1       36.6850    9.1480   79.5840 N.pl3  73  ARG73       0.1354
     53  NH2       36.7120   10.7420   77.9200 N.pl3  73  ARG73       0.1354
     54  N         36.1790   23.5380   79.4470 N.3   135  SER135     -0.1217
     55  CA        37.6280   23.3330   79.4360 C.3   135  SER135      0.1889
     56  C         37.9460   21.9820   78.8180 C.2   135  SER135      0.2288
     57  O         37.6650   20.9500   79.4040 O.2   135  SER135     -0.2866
     58  CB        38.2100   23.3860   80.8570 C.3   135  SER135      0.2089
     59  OG        38.4960   24.7150   81.2690 O.3   135  SER135     -0.2183
     60  N         40.2900   18.8450   77.8380 N.3   137  PHE137     -0.1241
     61  CA        41.4630   18.2040   78.4730 C.3   137  PHE137      0.1605
     62  C         41.9910   17.0580   77.6190 C.2   137  PHE137      0.2264
     63  O         41.2480   16.4870   76.8320 O.2   137  PHE137     -0.2867
     64  CB        41.1680   17.7140   79.8920 C.3   137  PHE137      0.0534
     65  CG        40.3100   16.4600   79.9530 C.ar  137  PHE137     -0.0203
     66  CD1       38.9070   16.5630   80.0530 C.ar  137  PHE137     -0.0042
     67  CD2       40.8960   15.1940   79.9090 C.ar  137  PHE137     -0.0042
     68  CE1       38.1110   15.4260   80.1010 C.ar  137  PHE137     -0.0003
     69  CE2       40.1080   14.0340   79.9630 C.ar  137  PHE137     -0.0003
     70  CZ        38.6970   14.1540   80.0330 C.ar  137  PHE137     -0.0000
     71  N         44.5870   13.6740   78.5010 N.3   139  GLN139     -0.1245
     72  CA        45.3020   12.9600   79.5490 C.3   139  GLN139      0.1566
     73  C         45.9050   11.7170   78.9400 C.2   139  GLN139      0.2260
     74  O         45.2760   11.0510   78.1220 O.2   139  GLN139     -0.2867
     75  CB        44.3430   12.5780   80.6900 C.3   139  GLN139      0.0367
     76  CG        44.9810   11.7240   81.7960 C.3   139  GLN139      0.0905
     77  CD        44.1640   11.7340   83.0690 C.2   139  GLN139      0.2608
     78  OE1       44.2300   12.7000   83.8390 O.2   139  GLN139     -0.2717
     79  NE2       43.3900   10.6510   83.3110 N.am  139  GLN139     -0.0878
     80  N         47.4900    8.1580   80.2400 N.3   141  LYS141     -0.1245
     81  CA        47.4190    7.3380   81.4650 C.3   141  LYS141      0.1561
     82  C         48.1350    6.0020   81.2070 C.2   141  LYS141      0.2260
     83  O         47.9640    5.4130   80.1430 O.2   141  LYS141     -0.2867
     84  CB        45.9300    7.1470   81.7870 C.3   141  LYS141      0.0271
     85  CG        45.5460    5.9910   82.6320 C.3   141  LYS141      0.0035
     86  CD        44.0550    6.0370   83.0180 C.3   141  LYS141      0.0206
     87  CE        43.1790    5.2750   82.0690 C.3   141  LYS141      0.1093
     88  NZ        41.8460    4.9490   82.7290 N.3   141  LYS141     -0.1314
     89  N         52.8010   17.2380   89.2760 N.3   173  LEU173     -0.1231
     90  CA        52.9020   18.4930   88.5490 C.3   173  LEU173      0.1693
     91  C         51.6340   19.3660   88.6360 C.2   173  LEU173      0.2592
     92  O         50.5070   18.8620   88.6450 O.2   173  LEU173     -0.2718
     93  CB        53.2450   18.2050   87.0930 C.3   173  LEU173      0.0284
     94  CG        53.5320   19.3890   86.1760 C.3   173  LEU173      0.0019
     95  CD1       54.8970   20.0330   86.4770 C.3   173  LEU173      0.0001
     96  CD2       53.4360   18.9070   84.7190 C.3   173  LEU173      0.0001
     97  N         51.8330   20.6840   88.6310 N.am  174  ASN174     -0.1974
     98  CA        50.7230   21.6270   88.5830 C.3   174  ASN174      0.1688
     99  C         51.2650   22.9940   88.1780 C.2   174  ASN174      0.2292
    100  O         51.5920   23.8180   89.0270 O.2   174  ASN174     -0.2864
    101  CB        50.0280   21.6920   89.9510 C.3   174  ASN174      0.1181
    102  CG        48.8170   22.5930   89.9650 C.2   174  ASN174      0.2629
    103  OD1       48.3410   23.0710   88.9150 O.2   174  ASN174     -0.2716
    104  ND2       48.3120   22.8550   91.1690 N.am  174  ASN174     -0.0877
    105  N         51.0480   26.2870   85.0150 N.3   176  SER176     -0.1217
    106  CA        50.1690   26.8790   84.0340 C.3   176  SER176      0.1889
    107  C         50.9900   27.6890   83.0750 C.2   176  SER176      0.2288
    108  O         51.9310   28.3870   83.5020 O.2   176  SER176     -0.2866
    109  CB        49.0830   27.7000   84.7420 C.3   176  SER176      0.2089
    110  OG        48.3620   26.8090   85.5880 O.3   176  SER176     -0.2183
    111  N         45.7810   30.1800   78.8200 N.3   199  THR199     -0.1203
    112  CA        46.7910   29.6040   79.6980 C.3   199  THR199      0.1994
    113  C         46.3350   28.1870   80.0390 C.2   199  THR199      0.2618
    114  O         45.3200   27.9870   80.7050 O.2   199  THR199     -0.2717
    115  CB        46.9450   30.4590   80.9610 C.3   199  THR199      0.1784
    116  OG1       47.3180   31.7740   80.5610 O.3   199  THR199     -0.2211
    117  CG2       48.0100   29.8930   81.9160 C.3   199  THR199      0.0376
    118  N         47.0690   27.1950   79.5490 N.am  200  ASN200     -0.1960
    119  CA        46.7530   25.8140   79.8830 C.3   200  ASN200      0.1819
    120  C         47.2760   25.4530   81.2620 C.2   200  ASN200      0.2621
    121  O         48.2810   26.0060   81.7060 O.2   200  ASN200     -0.2715
    122  CB        47.4350   24.9120   78.8770 C.3   200  ASN200      0.1195
    123  CG        46.9960   25.2130   77.4670 C.2   200  ASN200      0.2630
    124  OD1       45.7790   25.2310   77.2010 O.2   200  ASN200     -0.2716
    125  ND2       47.9590   25.5010   76.5700 N.am  200  ASN200     -0.0877
    126  N         46.6180   24.5030   81.9150 N.am  201  ASN201     -0.1972
    127  CA        47.1650   23.9170   83.1340 C.3   201  ASN201      0.1688
    128  C         47.7070   22.5330   82.8290 C.2   201  ASN201      0.2292
    129  O         46.9930   21.6780   82.2880 O.2   201  ASN201     -0.2864
    130  CB        46.0860   23.7950   84.2230 C.3   201  ASN201      0.1181
    131  CG        46.5580   22.9830   85.4040 C.2   201  ASN201      0.2629
    132  OD1       46.0690   21.8760   85.6240 O.2   201  ASN201     -0.2716
    133  ND2       47.5640   23.4790   86.1250 N.am  201  ASN201     -0.0877
    134  N         49.4030   19.0190   84.3640 N.3   203  TYR203     -0.1241
    135  CA        49.4160   18.3150   85.6640 C.3   203  TYR203      0.1605
    136  C         49.8620   16.8700   85.5230 C.2   203  TYR203      0.2264
    137  O         49.8340   16.3210   84.4100 O.2   203  TYR203     -0.2867
    138  CB        47.9970   18.3520   86.2880 C.3   203  TYR203      0.0534
    139  CG        47.0180   17.5360   85.4630 C.ar  203  TYR203     -0.0201
    140  CD1       46.3280   18.1020   84.3860 C.ar  203  TYR203     -0.0009
    141  CD2       46.8300   16.1520   85.7330 C.ar  203  TYR203     -0.0009
    142  CE1       45.4540   17.3080   83.6050 C.ar  203  TYR203      0.0417
    143  CE2       45.9730   15.3660   84.9630 C.ar  203  TYR203      0.0417
    144  CZ        45.2990   15.9430   83.9010 C.ar  203  TYR203      0.1957
    145  OH        44.4590   15.1550   83.1490 O.3   203  TYR203     -0.2866
    146  N         49.0170   13.0440   87.8030 N.3   205  ALA205     -0.1245
    147  CA        48.1810   12.4600   88.8500 C.3   205  ALA205      0.1562
    148  C         48.5210   11.0090   89.0390 C.2   205  ALA205      0.2260
    149  O         48.8250   10.2910   88.0800 O.2   205  ALA205     -0.2867
    150  CB        46.6750   12.5870   88.5170 C.3   205  ALA205      0.0290
    151  N         46.6020    7.9080   89.7770 N.3   207  LEU207     -0.1245
    152  CA        45.1670    7.6150   89.6390 C.3   207  LEU207      0.1561
    153  C         44.7390    6.4070   90.4610 C.2   207  LEU207      0.2260
    154  O         43.5720    5.9750   90.3980 O.2   207  LEU207     -0.2867
    155  CB        44.7970    7.3830   88.1900 C.3   207  LEU207      0.0270
    156  CG        44.9090    8.5620   87.2240 C.3   207  LEU207      0.0019
    157  CD1       44.4180    8.1200   85.8590 C.3   207  LEU207      0.0001
    158  CD2       44.1850    9.8190   87.6950 C.3   207  LEU207      0.0001
    159  N         44.7040   20.7920   80.8430 N.3   217  LYS217     -0.1231
    160  CA        43.3390   21.2830   80.9290 C.3   217  LYS217      0.1693
    161  C         43.3840   22.7100   80.4100 C.2   217  LYS217      0.2593
    162  O         44.1490   23.5270   80.9210 O.2   217  LYS217     -0.2718
    163  CB        42.8510   21.2730   82.3700 C.3   217  LYS217      0.0285
    164  CG        42.7140   19.8990   82.9630 C.3   217  LYS217      0.0035
    165  CD        41.9570   19.9590   84.2760 C.3   217  LYS217      0.0206
    166  CE        42.7810   20.6980   85.3310 C.3   217  LYS217      0.1093
    167  NZ        42.0740   20.6600   86.6530 N.3   217  LYS217     -0.1314
    168  N         42.5870   23.0000   79.3890 N.am  218  SER218     -0.1938
    169  CA        42.5740   24.3310   78.8150 C.3   218  SER218      0.2055
    170  C         41.9590   25.3580   79.7730 C.2   218  SER218      0.2643
    171  O         41.1410   25.0230   80.6520 O.2   218  SER218     -0.2714
    172  CB        41.8010   24.3280   77.5020 C.3   218  SER218      0.2130
    173  OG        40.4220   24.3400   77.7780 O.3   218  SER218     -0.2179
    174  N         42.3730   26.6150   79.6120 N.am  219  GLN219     -0.1963
    175  CA        41.6850   27.6910   80.3080 C.3   219  GLN219      0.1718
    176  C         40.2080   27.6620   79.8720 C.2   219  GLN219      0.2458
    177  O         39.9170   27.5580   78.6740 O.2   219  GLN219     -0.2730
    178  CB        42.2670   29.0370   79.9370 C.3   219  GLN219      0.0407
    179  CG        41.7210   30.1600   80.7920 C.3   219  GLN219      0.0908
    180  CD        42.2790   31.4930   80.3780 C.2   219  GLN219      0.2608
    181  OE1       43.3590   31.5630   79.7830 O.2   219  GLN219     -0.2717
    182  NE2       41.5260   32.5780   80.6660 N.am  219  GLN219     -0.0878
    183  N         39.2810   27.7300   80.8310 N.am  220  PRO220     -0.2727
    184  CA        37.8630   27.7050   80.4420 C.3   220  PRO220      0.1402
    185  C         37.5120   28.7630   79.4010 C.2   220  PRO220      0.2269
    186  O         37.9940   29.9130   79.4780 O.2   220  PRO220     -0.2865
    187  CB        37.1450   27.9980   81.7590 C.3   220  PRO220      0.0296
    188  CG        38.1090   27.5000   82.8110 C.3   220  PRO220      0.0237
    189  CD        39.4570   27.8150   82.2980 C.3   220  PRO220      0.0939
@<TRIPOS>BOND
     1     1     2    1
     2     2     3    1
     3     2     5    1
     4     3     4    2
     5   125   123   am
     6    14    15    2
     7    14    13    1
     8    12    13    1
     9    63    62    2
    10    13    16    1
    11     5     6    1
    12   124   123    2
    13   123   122    1
    14   172   173    1
    15   172   169    1
    16    35    33   ar
    17    62    61    1
    18    60    61    1
    19    53    51    1
    20    74    73    2
    21    34    33   ar
    22    11     9    1
    23    33    32    1
    24    16    17    1
    25    61    64    1
    26     6     7    1
    27    71    72    1
    28   177   176    2
    29     9     8    2
    30     9    10    1
    31   169   168    1
    32   169   170    1
    33    56    57    2
    34    56    55    1
    35   111   112    1
    36   122   119    1
    37    17    18    1
    38    73    72    1
    39     8     7    1
    40    51    50    2
    41    51    52    1
    42    46    45    2
    43    45    44    1
    44   168   161   am
    45   185   186    2
    46   185   184    1
    47    55    54    1
    48    55    58    1
    49    50    49    1
    50   118   119    1
    51   118   113   am
    52    72    75    1
    53   174   170   am
    54   174   175    1
    55   112   113    1
    56   112   115    1
    57   170   171    2
    58   181   180    2
    59    32    29    1
    60   176   175    1
    61   176   183   am
    62   119   120    1
    63    64    65    1
    64    67    65   ar
    65    67    69   ar
    66   178   175    1
    67   178   179    1
    68    65    66   ar
    69    69    70   ar
    70    47    44    1
    71    47    48    1
    72    70    68   ar
    73   113   114    2
    74    66    68   ar
    75    28    29    1
    76    21    22    1
    77    83    82    2
    78    80    81    1
    79   180   182   am
    80   180   179    1
    81   161   162    2
    82   161   160    1
    83    18    20   am
    84    18    19    2
    85   184   183    1
    86   184   187    1
    87    44    43    1
    88   116   115    1
    89    29    30    1
    90    75    76    1
    91    49    48    1
    92    24    23    2
    93   183   189    1
    94   159   160    1
    95    58    59    1
    96   160   163    1
    97   115   117    1
    98    82    81    1
    99   120   121    2
   100   120   126   am
   101    22    23    1
   102    22    25    1
   103    81    84    1
   104   187   188    1
   105    84    85    1
   106    76    77    1
   107   126   127    1
   108    87    88    1
   109    87    86    1
   110    30    31    2
   111   129   128    2
   112   189   188    1
   113   163   164    1
   114    27    25    1
   115    25    26    1
   116    85    86    1
   117   128   127    1
   118   164   165    1
   119    77    79   am
   120    77    78    2
   121   107   108    2
   122   107   106    1
   123   127   130    1
   124   145   144    1
   125   142   144   ar
   126   142   140   ar
   127   144   143   ar
   128   106   109    1
   129   106   105    1
   130   130   131    1
   131   165   166    1
   132   134   135    1
   133   140   139   ar
   134   137   136    2
   135    96    94    1
   136   109   110    1
   137   143   141   ar
   138   166   167    1
   139   131   132    2
   140   131   133   am
   141   139   141   ar
   142   139   138    1
   143   136   135    1
   144    36    42    1
   145    36    37    1
   146   135   138    1
   147   157   156    1
   148    42    41    1
   149    94    95    1
   150    94    93    1
   151    37    38    1
   152    37    40    1
   153    93    90    1
   154    38    39    2
   155    40    41    1
   156   156   158    1
   157   156   155    1
   158   146   147    1
   159   149   148    2
   160    99    98    1
   161    99   100    2
   162   155   152    1
   163   150   147    1
   164    90    91    1
   165    90    89    1
   166    98    97    1
   167    98   101    1
   168    97    91   am
   169    91    92    2
   170   147   148    1
   171   103   102    2
   172   152   151    1
   173   152   153    1
   174   101   102    1
   175   102   104   am
   176   154   153    2
