@<TRIPOS>MOLECULE
tmp/3bs6A00.pdb
 114 106 0 0 0
SMALL
GASTEIGER

@<TRIPOS>ATOM
      1  N         50.0610   29.6250   40.7140 N.3    53  GLN53      -0.1245
      2  CA        48.9560   29.0090   39.9900 C.3    53  GLN53       0.1566
      3  C         48.9080   27.5230   40.2770 C.2    53  GLN53       0.2260
      4  O         49.9380   26.9030   40.5580 O.2    53  GLN53      -0.2867
      5  CB        49.0900   29.2330   38.4930 C.3    53  GLN53       0.0367
      6  CG        49.2950   30.6670   38.1080 C.3    53  GLN53       0.0905
      7  CD        49.5170   30.8140   36.6300 C.2    53  GLN53       0.2608
      8  OE1       50.6290   30.5940   36.1330 O.2    53  GLN53      -0.2717
      9  NE2       48.4780   31.2050   35.9210 N.am   53  GLN53      -0.0878
     10  N         45.2590   19.1370   35.6550 N.3    57  THR57      -0.1218
     11  CA        45.4220   19.0020   34.2430 C.3    57  THR57       0.1862
     12  C         45.4100   17.5130   33.8930 C.2    57  THR57       0.2287
     13  O         44.7070   16.7260   34.5440 O.2    57  THR57      -0.2866
     14  CB        46.6370   19.8070   33.7300 C.3    57  THR57       0.1770
     15  OG1       46.6850   19.7680   32.2990 O.3    57  THR57      -0.2211
     16  CG2       47.9570   19.3270   34.3400 C.3    57  THR57       0.0375
     17  N         41.3560   22.2160   34.4580 N.3    63  ASP63      -0.1239
     18  CA        42.3180   23.3090   34.1780 C.3    63  ASP63       0.1674
     19  C         43.1380   23.1030   32.9050 C.2    63  ASP63       0.2266
     20  O         43.8620   23.9850   32.4650 O.2    63  ASP63      -0.2867
     21  CB        43.2520   23.5770   35.3700 C.3    63  ASP63       0.1410
     22  CG        42.4940   23.9830   36.6220 C.2    63  ASP63       0.3668
     23  OD1       42.1670   25.1860   36.7690 O.co2  63  ASP63      -0.2456
     24  OD2       42.2290   23.0790   37.4620 O.co2  63  ASP63      -0.2456
     25  N         43.5030   23.5370   29.2830 N.3    65  PRO65      -0.2116
     26  CA        42.7140   24.4850   28.4800 C.3    65  PRO65       0.1372
     27  C         41.9460   23.8390   27.3120 C.2    65  PRO65       0.2244
     28  O         41.0080   24.4580   26.7800 O.2    65  PRO65      -0.2868
     29  CB        43.7590   25.5050   27.9930 C.3    65  PRO65       0.0268
     30  CG        45.0450   24.8110   28.0890 C.3    65  PRO65       0.0207
     31  CD        44.9500   23.7770   29.1740 C.3    65  PRO65       0.0892
     32  N         38.9150   27.7670   32.2450 N.3    70  ARG70      -0.1245
     33  CA        39.3660   27.4650   33.6300 C.3    70  ARG70       0.1563
     34  C         38.0820   27.3080   34.4310 C.2    70  ARG70       0.2260
     35  O         37.1830   28.1610   34.3060 O.2    70  ARG70      -0.2867
     36  CB        40.1570   28.6190   34.3240 C.3    70  ARG70       0.0307
     37  CG        41.6540   28.8560   34.1100 C.3    70  ARG70       0.0489
     38  CD        42.5970   27.6900   34.3220 C.3    70  ARG70       0.2205
     39  NE        43.0960   27.4110   35.6690 N.pl3  70  ARG70      -0.0865
     40  CZ        43.9450   28.1510   36.4060 C.cat  70  ARG70       0.5346
     41  NH1       44.3280   29.3910   36.0520 N.pl3  70  ARG70       0.1354
     42  NH2       44.3160   27.6990   37.6010 N.pl3  70  ARG70       0.1354
     43  N         48.9550   20.1710   39.0110 N.3   134  PHE134     -0.1241
     44  CA        50.0880   21.0130   38.6220 C.3   134  PHE134      0.1605
     45  C         50.1570   22.1820   39.6200 C.2   134  PHE134      0.2264
     46  O         49.1210   22.5660   40.2410 O.2   134  PHE134     -0.2867
     47  CB        50.0030   21.5140   37.1500 C.3   134  PHE134      0.0534
     48  CG        49.0500   22.6810   36.9450 C.ar  134  PHE134     -0.0203
     49  CD1       47.7290   22.4400   36.5980 C.ar  134  PHE134     -0.0042
     50  CD2       49.4730   24.0040   37.1310 C.ar  134  PHE134     -0.0042
     51  CE1       46.8230   23.5480   36.4200 C.ar  134  PHE134     -0.0003
     52  CE2       48.6200   25.0940   36.9500 C.ar  134  PHE134     -0.0003
     53  CZ        47.2760   24.8570   36.6290 C.ar  134  PHE134     -0.0000
     54  N         52.2950   26.0210   39.3700 N.3   136  GLN136     -0.1245
     55  CA        53.2120   26.8490   38.5980 C.3   136  GLN136      0.1566
     56  C         53.4300   28.1850   39.3340 C.2   136  GLN136      0.2260
     57  O         52.4870   28.7160   39.9470 O.2   136  GLN136     -0.2867
     58  CB        52.6060   27.0970   37.2110 C.3   136  GLN136      0.0367
     59  CG        53.4750   28.0010   36.3140 C.3   136  GLN136      0.0905
     60  CD        53.0250   27.9600   34.8760 C.2   136  GLN136      0.2608
     61  OE1       53.4140   27.0630   34.1400 O.2   136  GLN136     -0.2717
     62  NE2       52.2100   28.9460   34.4600 N.am  136  GLN136     -0.0878
     63  N         63.9210   23.9110   31.6150 N.3   172  LEU172     -0.1231
     64  CA        63.9870   22.6560   32.3510 C.3   172  LEU172      0.1693
     65  C         62.8940   21.6890   31.9050 C.2   172  LEU172      0.2592
     66  O         61.7690   22.1040   31.6030 O.2   172  LEU172     -0.2718
     67  CB        63.7630   22.9520   33.8430 C.3   172  LEU172      0.0284
     68  CG        63.8910   21.8360   34.8900 C.3   172  LEU172      0.0019
     69  CD1       65.3370   21.3260   34.9330 C.3   172  LEU172      0.0001
     70  CD2       63.4700   22.3290   36.2530 C.3   172  LEU172      0.0001
     71  N         63.2020   20.3910   31.9770 N.am  173  ASN173     -0.1974
     72  CA        62.2310   19.3300   31.7340 C.3   173  ASN173      0.1688
     73  C         62.8130   18.0530   32.3340 C.2   173  ASN173      0.2292
     74  O         63.4860   17.2890   31.6620 O.2   173  ASN173     -0.2864
     75  CB        61.9690   19.1840   30.2240 C.3   173  ASN173      0.1181
     76  CG        60.9700   18.0770   29.8890 C.2   173  ASN173      0.2629
     77  OD1       60.2940   17.5120   30.7750 O.2   173  ASN173     -0.2716
     78  ND2       60.8920   17.7370   28.5870 N.am  173  ASN173     -0.0877
     79  N         56.8730   15.7750   37.0050 N.3   200  ASN200     -0.1240
     80  CA        57.6150   16.4210   35.9330 C.3   200  ASN200      0.1653
     81  C         57.8030   17.8550   36.3720 C.2   200  ASN200      0.2266
     82  O         56.8570   18.5290   36.7180 O.2   200  ASN200     -0.2867
     83  CB        56.8510   16.3730   34.6060 C.3   200  ASN200      0.1155
     84  CG        57.5240   17.2100   33.4960 C.2   200  ASN200      0.2627
     85  OD1       56.8460   17.9820   32.8330 O.2   200  ASN200     -0.2716
     86  ND2       58.8350   17.0760   33.3090 N.am  200  ASN200     -0.0877
     87  N         59.4290   21.6430   35.2980 N.3   202  TYR202     -0.1227
     88  CA        59.7240   22.3450   34.0310 C.3   202  TYR202      0.1736
     89  C         59.8320   23.8370   34.3000 C.2   202  TYR202      0.2596
     90  O         59.4040   24.3310   35.3490 O.2   202  TYR202     -0.2718
     91  CB        58.5900   22.0750   32.9980 C.3   202  TYR202      0.0548
     92  CG        57.2780   22.7200   33.4680 C.ar  202  TYR202     -0.0200
     93  CD1       56.4080   22.0350   34.3390 C.ar  202  TYR202     -0.0009
     94  CD2       56.9710   24.0600   33.1260 C.ar  202  TYR202     -0.0009
     95  CE1       55.2430   22.6520   34.8460 C.ar  202  TYR202      0.0417
     96  CE2       55.8170   24.6830   33.6280 C.ar  202  TYR202      0.0417
     97  CZ        54.9530   23.9680   34.4790 C.ar  202  TYR202      0.1957
     98  OH        53.8190   24.5730   34.9920 O.3   202  TYR202     -0.2866
     99  N         60.4560   24.5440   33.3690 N.am  203  THR203     -0.1953
    100  CA        60.3380   25.9810   33.3240 C.3   203  THR203      0.1897
    101  C         59.7480   26.3170   31.9440 C.2   203  THR203      0.2313
    102  O         59.7530   25.4790   31.0090 O.2   203  THR203     -0.2863
    103  CB        61.6940   26.7220   33.5220 C.3   203  THR203      0.1794
    104  OG1       62.6140   26.3450   32.4950 O.3   203  THR203     -0.2208
    105  CG2       62.2810   26.4950   34.9310 C.3   203  THR203      0.0378
    106  N         54.1400   19.0800   37.2050 N.3   216  LYS216     -0.1245
    107  CA        52.9290   18.3630   36.7670 C.3   216  LYS216      0.1561
    108  C         53.0730   16.9520   37.3140 C.2   216  LYS216      0.2260
    109  O         54.0970   16.3150   37.0770 O.2   216  LYS216     -0.2867
    110  CB        52.8250   18.3020   35.2380 C.3   216  LYS216      0.0271
    111  CG        52.6590   19.6510   34.5070 C.3   216  LYS216      0.0035
    112  CD        52.1980   19.4500   33.0210 C.3   216  LYS216      0.0206
    113  CE        53.2280   18.6250   32.2130 C.3   216  LYS216      0.1093
    114  NZ        52.7710   18.2320   30.8190 N.3   216  LYS216     -0.1314
@<TRIPOS>BOND
     1    28    27    2
     2    27    26    1
     3    29    30    1
     4    29    26    1
     5    30    31    1
     6    26    25    1
     7    78    76   am
     8    31    25    1
     9    76    75    1
    10    76    77    2
    11    75    72    1
    12   114   113    1
    13   102   101    2
    14    66    65    2
    15    63    64    1
    16    74    73    2
    17    72    71    1
    18    72    73    1
    19    65    71   am
    20    65    64    1
    21   101   100    1
    22   113   112    1
    23    32    33    1
    24    15    14    1
    25    64    67    1
    26    20    19    2
    27   104   103    1
    28    85    84    2
    29    19    18    1
    30    91    92    1
    31    91    88    1
    32   112   111    1
    33    94    92   ar
    34    94    96   ar
    35    86    84   am
    36   100    99    1
    37   100   103    1
    38    99    89   am
    39    92    93   ar
    40    84    83    1
    41   103   105    1
    42    96    97   ar
    43    33    36    1
    44    33    34    1
    45    14    11    1
    46    14    16    1
    47    67    68    1
    48    12    11    1
    49    12    13    2
    50    88    89    1
    51    88    87    1
    52    37    38    1
    53    37    36    1
    54    61    60    2
    55    18    17    1
    56    18    21    1
    57    11    10    1
    58    89    90    2
    59    35    34    2
    60    38    39    1
    61    93    95   ar
    62    62    60   am
    63    97    95   ar
    64    97    98    1
    65   111   110    1
    66    83    80    1
    67    60    59    1
    68    68    69    1
    69    68    70    1
    70   110   107    1
    71    21    22    1
    72    39    40    2
    73     9     7   am
    74    80    81    1
    75    80    79    1
    76    41    40    1
    77     8     7    2
    78    59    58    1
    79    81    82    2
    80    40    42    1
    81    51    49   ar
    82    51    53   ar
    83    49    48   ar
    84    22    23   ar
    85    22    24   ar
    86    53    52   ar
    87     7     6    1
    88   107   106    1
    89   107   108    1
    90    48    50   ar
    91    48    47    1
    92    52    50   ar
    93   109   108    2
    94    47    44    1
    95    58    55    1
    96     6     5    1
    97     5     2    1
    98    55    56    1
    99    55    54    1
   100    44    43    1
   101    44    45    1
   102    56    57    2
   103    45    46    2
   104     2     3    1
   105     2     1    1
   106     3     4    2
