@<TRIPOS>MOLECULE
tmp/3bs8A00.pdb
 123 117 0 0 0
SMALL
GASTEIGER

@<TRIPOS>ATOM
      1  N         31.0470   -1.8280   29.7000 N.3   117  SER117     -0.1202
      2  CA        31.3660   -1.4930   28.3080 C.3   117  SER117      0.2020
      3  C         32.5770   -0.5790   28.1540 C.2   117  SER117      0.2619
      4  O         33.0300    0.0390   29.1170 O.2   117  SER117     -0.2717
      5  CB        30.1580   -0.8640   27.6150 C.3   117  SER117      0.2103
      6  OG        29.9200    0.4370   28.1130 O.3   117  SER117     -0.2182
      7  N         33.0800   -0.4910   26.9260 N.am  118  GLY118     -0.1942
      8  CA        34.1120    0.4880   26.5620 C.3   118  GLY118      0.2014
      9  C         33.6320    1.9220   26.7200 C.2   118  GLY118      0.2639
     10  O         34.3950    2.7930   27.1110 O.2   118  GLY118     -0.2714
     11  N         32.3590    2.1520   26.4150 N.am  119  THR119     -0.1950
     12  CA        31.6970    3.4400   26.6210 C.3   119  THR119      0.1897
     13  C         31.7810    3.8950   28.0770 C.2   119  THR119      0.2313
     14  O         32.0610    5.0620   28.3470 O.2   119  THR119     -0.2863
     15  CB        30.2120    3.3740   26.1900 C.3   119  THR119      0.1794
     16  OG1       30.1380    3.2900   24.7640 O.3   119  THR119     -0.2208
     17  CG2       29.4410    4.6040   26.6530 C.3   119  THR119      0.0378
     18  N         35.6100    4.5810   29.1140 N.3   122  THR122     -0.1218
     19  CA        36.1380    5.8700   28.6700 C.3   122  THR122      0.1862
     20  C         35.4410    7.0260   29.3730 C.2   122  THR122      0.2287
     21  O         36.0850    7.9890   29.7830 O.2   122  THR122     -0.2866
     22  CB        36.0100    6.0510   27.1460 C.3   122  THR122      0.1770
     23  OG1       34.6330    5.9390   26.7680 O.3   122  THR122     -0.2211
     24  CG2       36.8440    5.0190   26.3990 C.3   122  THR122      0.0375
     25  N         37.1140    6.8860   18.2110 N.3   145  TYR145     -0.1227
     26  CA        35.8590    6.5650   18.8530 C.3   145  TYR145      0.1736
     27  C         36.1340    5.9990   20.2360 C.2   145  TYR145      0.2595
     28  O         36.9910    5.1260   20.4010 O.2   145  TYR145     -0.2718
     29  CB        35.0640    5.5690   18.0050 C.3   145  TYR145      0.0548
     30  CG        33.7000    5.2590   18.5670 C.ar  145  TYR145     -0.0200
     31  CD1       32.6530    6.1750   18.4430 C.ar  145  TYR145     -0.0009
     32  CD2       33.4580    4.0580   19.2380 C.ar  145  TYR145     -0.0009
     33  CE1       31.3990    5.8970   18.9630 C.ar  145  TYR145      0.0417
     34  CE2       32.2120    3.7750   19.7580 C.ar  145  TYR145      0.0417
     35  CZ        31.1860    4.6970   19.6160 C.ar  145  TYR145      0.1957
     36  OH        29.9440    4.4280   20.1330 O.3   145  TYR145     -0.2866
     37  N         35.3960    6.4980   21.2220 N.am  146  HIS146     -0.1961
     38  CA        35.5920    6.1110   22.6140 C.3   146  HIS146      0.1787
     39  C         34.3020    5.6210   23.2650 C.2   146  HIS146      0.2621
     40  O         34.2970    5.2140   24.4230 O.2   146  HIS146     -0.2715
     41  CB        36.1950    7.2770   23.4100 C.3   146  HIS146      0.0785
     42  CG        37.4340    7.8480   22.7920 C.ar  146  HIS146      0.0821
     43  ND1       38.6070    7.1340   22.6840 N.ar  146  HIS146     -0.2267
     44  CD2       37.6770    9.0580   22.2330 C.ar  146  HIS146      0.1154
     45  CE1       39.5230    7.8800   22.0900 C.ar  146  HIS146      0.1986
     46  NE2       38.9840    9.0520   21.8070 N.ar  146  HIS146     -0.2212
     47  N         33.2140    5.6380   22.5040 N.am  147  GLY147     -0.1940
     48  CA        31.9170    5.2200   23.0100 C.3   147  GLY147      0.2014
     49  C         30.9010    6.3320   22.8980 C.2   147  GLY147      0.2638
     50  O         31.2500    7.4750   22.5930 O.2   147  GLY147     -0.2714
     51  N         29.6410    5.9950   23.1570 N.am  148  HIS148     -0.1973
     52  CA        28.5400    6.9390   23.0070 C.3   148  HIS148      0.1656
     53  C         28.2930    7.7600   24.2770 C.2   148  HIS148      0.2291
     54  O         27.2300    8.3580   24.4410 O.2   148  HIS148     -0.2864
     55  CB        27.2680    6.2070   22.5670 C.3   148  HIS148      0.0771
     56  CG        26.6450    5.3730   23.6450 C.ar  148  HIS148      0.0820
     57  ND1       25.7060    5.8740   24.5240 N.ar  148  HIS148     -0.2267
     58  CD2       26.8260    4.0760   23.9860 C.ar  148  HIS148      0.1154
     59  CE1       25.3320    4.9190   25.3570 C.ar  148  HIS148      0.1986
     60  NE2       25.9970    3.8180   25.0530 N.ar  148  HIS148     -0.2212
     61  N         43.1660    6.7570   20.8670 N.3   207  GLU207     -0.1245
     62  CA        43.4300    5.3760   20.5190 C.3   207  GLU207      0.1567
     63  C         44.8840    5.3270   20.0770 C.2   207  GLU207      0.2260
     64  O         45.2420    5.9310   19.0580 O.2   207  GLU207     -0.2867
     65  CB        42.5250    4.9090   19.3810 C.3   207  GLU207      0.0388
     66  CG        41.0500    4.8190   19.7260 C.3   207  GLU207      0.1160
     67  CD        40.2170    4.4770   18.5120 C.2   207  GLU207      0.3649
     68  OE1       40.1620    3.2920   18.1340 O.co2 207  GLU207     -0.2457
     69  OE2       39.6130    5.3930   17.9340 O.co2 207  GLU207     -0.2457
     70  N         38.7940    2.6880   14.5820 N.3   212  ASN212     -0.1240
     71  CA        37.3980    3.0170   14.2940 C.3   212  ASN212      0.1653
     72  C         37.2620    3.9870   13.1270 C.2   212  ASN212      0.2266
     73  O         36.1570    4.3990   12.7700 O.2   212  ASN212     -0.2867
     74  CB        36.7100    3.5530   15.5480 C.3   212  ASN212      0.1155
     75  CG        36.6010    2.5060   16.6370 C.2   212  ASN212      0.2627
     76  OD1       35.7440    1.6240   16.5800 O.2   212  ASN212     -0.2716
     77  ND2       37.4800    2.5920   17.6330 N.am  212  ASN212     -0.0877
     78  N         42.8350    4.9120   25.0300 N.3   240  ASP240     -0.1239
     79  CA        41.6850    4.0890   24.7490 C.3   240  ASP240      0.1674
     80  C         42.1740    2.8250   24.0750 C.2   240  ASP240      0.2266
     81  O         42.3320    2.7850   22.8500 O.2   240  ASP240     -0.2867
     82  CB        40.6770    4.8170   23.8700 C.3   240  ASP240      0.1410
     83  CG        39.4000    4.0310   23.6890 C.2   240  ASP240      0.3668
     84  OD1       39.4050    2.7920   23.8580 O.co2 240  ASP240     -0.2456
     85  OD2       38.3760    4.6490   23.3690 O.co2 240  ASP240     -0.2456
     86  N         40.5090   -0.1050   24.3470 N.3   242  VAL242     -0.1231
     87  CA        39.3650   -1.0150   24.3330 C.3   242  VAL242      0.1692
     88  C         39.4990   -2.0060   23.1700 C.2   242  VAL242      0.2592
     89  O         39.1980   -3.1880   23.3230 O.2   242  VAL242     -0.2718
     90  CB        38.0130   -0.2390   24.3030 C.3   242  VAL242      0.0266
     91  CG1       36.8400   -1.1590   23.9800 C.3   242  VAL242      0.0020
     92  CG2       37.7840    0.4730   25.6360 C.3   242  VAL242      0.0020
     93  N         39.9940   -1.5280   22.0320 N.am  243  MET243     -0.1965
     94  CA        40.2350   -2.3930   20.8800 C.3   243  MET243      0.1736
     95  C         41.6790   -2.8630   20.7890 C.2   243  MET243      0.2617
     96  O         41.9360   -4.0390   20.5220 O.2   243  MET243     -0.2715
     97  CB        39.8350   -1.7070   19.5780 C.3   243  MET243      0.0427
     98  CG        39.6120   -2.6850   18.4300 C.3   243  MET243      0.0599
     99  SD        39.3820   -1.8420   16.8620 S.3   243  MET243     -0.1393
    100  CE        41.0700   -1.5640   16.4020 C.3   243  MET243      0.0692
    101  N         42.6100   -1.9400   21.0090 N.am  244  THR244     -0.1951
    102  CA        44.0430   -2.2230   20.8930 C.3   244  THR244      0.1897
    103  C         44.5410   -3.1260   22.0050 C.2   244  THR244      0.2313
    104  O         45.5210   -3.8490   21.8370 O.2   244  THR244     -0.2863
    105  CB        44.8740   -0.9390   20.9010 C.3   244  THR244      0.1794
    106  OG1       44.5800   -0.1950   22.0830 O.3   244  THR244     -0.2208
    107  CG2       44.5520   -0.0820   19.6940 C.3   244  THR244      0.0378
    108  N         36.5550   -5.5160   25.3360 N.3   268  LYS268     -0.1245
    109  CA        36.6880   -6.6050   24.3720 C.3   268  LYS268      0.1561
    110  C         37.4810   -7.7700   24.9630 C.2   268  LYS268      0.2260
    111  O         37.0830   -8.3510   25.9720 O.2   268  LYS268     -0.2867
    112  CB        37.3600   -6.1070   23.0910 C.3   268  LYS268      0.0271
    113  CG        36.7280   -4.8550   22.5050 C.3   268  LYS268      0.0035
    114  CD        37.1270   -4.6640   21.0500 C.3   268  LYS268      0.0206
    115  CE        36.6320   -3.3320   20.5120 C.3   268  LYS268      0.1093
    116  NZ        35.2100   -3.4030   20.0750 N.3   268  LYS268     -0.1314
    117  N         31.7640   -6.1980   28.7070 N.3   276  VAL276     -0.1245
    118  CA        32.8500   -5.9140   29.6210 C.3   276  VAL276      0.1561
    119  C         33.4350   -4.5500   29.2840 C.2   276  VAL276      0.2260
    120  O         33.1270   -3.9530   28.2510 O.2   276  VAL276     -0.2867
    121  CB        33.9640   -7.0020   29.5140 C.3   276  VAL276      0.0252
    122  CG1       34.8540   -6.7510   28.2910 C.3   276  VAL276      0.0019
    123  CG2       34.7870   -7.0740   30.7930 C.3   276  VAL276      0.0019
@<TRIPOS>BOND
     1    73    72    2
     2    72    71    1
     3    71    70    1
     4    71    74    1
     5    74    75    1
     6   100    99    1
     7    76    75    2
     8    75    77   am
     9    99    98    1
    10    69    67   ar
    11    29    30    1
    12    29    26    1
    13    68    67   ar
    14    25    26    1
    15    98    97    1
    16    31    30   ar
    17    31    33   ar
    18    67    66    1
    19    30    32   ar
    20    26    27    1
    21    33    35   ar
    22    64    63    2
    23    32    34   ar
    24    65    66    1
    25    65    62    1
    26    97    94    1
    27    35    34   ar
    28    35    36    1
    29   107   105    1
    30   116   115    1
    31    63    62    1
    32    27    28    2
    33    27    37   am
    34   115   114    1
    35    62    61    1
    36    96    95    2
    37    95    94    1
    38    95   101   am
    39    94    93    1
    40   102   105    1
    41   102   101    1
    42   102   103    1
    43   105   106    1
    44   114   113    1
    45    37    38    1
    46    46    45   ar
    47    46    44   ar
    48   104   103    2
    49    93    88   am
    50    45    43   ar
    51    44    42   ar
    52    47    48    1
    53    47    39   am
    54   113   112    1
    55    55    52    1
    56    55    56    1
    57    50    49    2
    58    38    39    1
    59    38    41    1
    60    43    42   ar
    61    42    41    1
    62    81    80    2
    63    49    48    1
    64    49    51   am
    65    52    51    1
    66    52    53    1
    67   112   109    1
    68    88    89    2
    69    88    87    1
    70    39    40    2
    71    85    83   ar
    72    56    58   ar
    73    56    57   ar
    74    83    84   ar
    75    83    82    1
    76    82    79    1
    77    91    90    1
    78    58    60   ar
    79    80    79    1
    80    53    54    2
    81    90    87    1
    82    90    92    1
    83    87    86    1
    84   109   110    1
    85   109   108    1
    86    57    59   ar
    87    79    78    1
    88    16    15    1
    89   110   111    2
    90    60    59   ar
    91    15    12    1
    92    15    17    1
    93    24    22    1
    94    11    12    1
    95    11     9   am
    96     8     9    1
    97     8     7    1
    98    12    13    1
    99     9    10    2
   100    23    22    1
   101     7     3   am
   102    22    19    1
   103     5     6    1
   104     5     2    1
   105    13    14    2
   106     3     2    1
   107     3     4    2
   108   120   119    2
   109   122   121    1
   110     2     1    1
   111    19    18    1
   112    19    20    1
   113   117   118    1
   114   119   118    1
   115    20    21    2
   116   121   118    1
   117   121   123    1
