@<TRIPOS>MOLECULE
tmp/3bsaB00.pdb
 200 191 0 0 0
SMALL
GASTEIGER

@<TRIPOS>ATOM
      1  N         44.2940   -4.9980   46.9580 N.3   188  PHE188     -0.1241
      2  CA        45.1470   -3.9530   47.5250 C.3   188  PHE188      0.1605
      3  C         44.3520   -2.8560   48.2590 C.2   188  PHE188      0.2264
      4  O         44.9350   -2.0070   48.9300 O.2   188  PHE188     -0.2867
      5  CB        46.0630   -3.3460   46.4450 C.3   188  PHE188      0.0534
      6  CG        47.2040   -4.2610   45.9900 C.ar  188  PHE188     -0.0203
      7  CD1       48.0810   -4.8310   46.9070 C.ar  188  PHE188     -0.0042
      8  CD2       47.4080   -4.5210   44.6410 C.ar  188  PHE188     -0.0042
      9  CE1       49.1190   -5.6620   46.4910 C.ar  188  PHE188     -0.0003
     10  CE2       48.4530   -5.3490   44.2110 C.ar  188  PHE188     -0.0003
     11  CZ        49.3060   -5.9190   45.1410 C.ar  188  PHE188     -0.0000
     12  N         44.9560   -5.6790   56.3470 N.3   192  PRO192     -0.2116
     13  CA        44.9140   -7.1030   56.7080 C.3   192  PRO192      0.1372
     14  C         43.5620   -7.5080   57.2980 C.2   192  PRO192      0.2244
     15  O         42.9460   -8.4720   56.8440 O.2   192  PRO192     -0.2868
     16  CB        46.0080   -7.2230   57.7770 C.3   192  PRO192      0.0268
     17  CG        46.9670   -6.1390   57.4650 C.3   192  PRO192      0.0207
     18  CD        46.1590   -5.0080   56.8830 C.3   192  PRO192      0.0892
     19  N         40.9010   -7.6580   54.7270 N.3   195  ARG195     -0.1245
     20  CA        41.0760   -8.8100   53.8340 C.3   195  ARG195      0.1563
     21  C         40.5880  -10.1040   54.4750 C.2   195  ARG195      0.2260
     22  O         39.9760  -10.9340   53.8160 O.2   195  ARG195     -0.2867
     23  CB        42.5350   -8.9450   53.3870 C.3   195  ARG195      0.0307
     24  CG        42.8450  -10.2640   52.7070 C.3   195  ARG195      0.0489
     25  CD        44.2980  -10.3500   52.2910 C.3   195  ARG195      0.2205
     26  NE        44.5400  -11.5380   51.4880 N.pl3 195  ARG195     -0.0865
     27  CZ        44.7100  -11.5380   50.1710 C.cat 195  ARG195      0.5346
     28  NH1       44.6800  -10.3910   49.5010 N.pl3 195  ARG195      0.1354
     29  NH2       44.9030  -12.6930   49.5230 N.pl3 195  ARG195      0.1354
     30  N         55.2030  -15.1400   36.6710 N.3   219  PHE219     -0.1227
     31  CA        54.1230  -14.3680   36.0550 C.3   219  PHE219      0.1736
     32  C         54.6150  -13.3100   35.0720 C.2   219  PHE219      0.2595
     33  O         54.0840  -13.2200   33.9660 O.2   219  PHE219     -0.2718
     34  CB        53.2180  -13.7340   37.1120 C.3   219  PHE219      0.0547
     35  CG        51.9180  -13.1790   36.5630 C.ar  219  PHE219     -0.0202
     36  CD1       50.7730  -13.9710   36.5210 C.ar  219  PHE219     -0.0042
     37  CD2       51.8350  -11.8550   36.1130 C.ar  219  PHE219     -0.0042
     38  CE1       49.5810  -13.4740   36.0140 C.ar  219  PHE219     -0.0003
     39  CE2       50.6400  -11.3490   35.6110 C.ar  219  PHE219     -0.0003
     40  CZ        49.5140  -12.1490   35.5600 C.ar  219  PHE219     -0.0000
     41  N         55.6300  -12.5300   35.4520 N.am  220  ASP220     -0.1974
     42  CA        56.0930  -11.4170   34.5990 C.3   220  ASP220      0.1709
     43  C         56.5380  -11.9100   33.2340 C.2   220  ASP220      0.2293
     44  O         56.2820  -11.2720   32.2200 O.2   220  ASP220     -0.2864
     45  CB        57.2270  -10.6320   35.2620 C.3   220  ASP220      0.1436
     46  CG        56.7800   -9.9090   36.5160 C.2   220  ASP220      0.3671
     47  OD1       55.5780   -9.6090   36.6450 O.co2 220  ASP220     -0.2456
     48  OD2       57.6330   -9.6440   37.3830 O.co2 220  ASP220     -0.2456
     49  N         53.3750   -2.0390   37.0430 N.3   282  THR282     -0.1203
     50  CA        53.6230   -3.4980   37.1780 C.3   282  THR282      0.1994
     51  C         52.5850   -4.2080   38.0420 C.2   282  THR282      0.2618
     52  O         52.0830   -5.2520   37.6640 O.2   282  THR282     -0.2717
     53  CB        55.0180   -3.8160   37.7290 C.3   282  THR282      0.1784
     54  OG1       55.9980   -3.3150   36.8210 O.3   282  THR282     -0.2211
     55  CG2       55.2190   -5.3440   37.8610 C.3   282  THR282      0.0376
     56  N         52.2680   -3.6180   39.1870 N.am  283  SER283     -0.1951
     57  CA        51.2770   -4.1190   40.1130 C.3   283  SER283      0.1924
     58  C         49.8500   -4.0900   39.5280 C.2   283  SER283      0.2314
     59  O         49.1360   -5.1280   39.5030 O.2   283  SER283     -0.2863
     60  CB        51.3820   -3.3130   41.4230 C.3   283  SER283      0.2116
     61  OG        50.3070   -3.5390   42.3180 O.3   283  SER283     -0.2180
     62  N         49.6710   -6.3810   36.2440 N.3   286  ASN286     -0.1240
     63  CA        49.6550   -7.8250   36.5440 C.3   286  ASN286      0.1653
     64  C         48.3090   -8.2060   37.1360 C.2   286  ASN286      0.2266
     65  O         47.6970   -9.1340   36.6720 O.2   286  ASN286     -0.2867
     66  CB        50.7990   -8.2160   37.4710 C.3   286  ASN286      0.1155
     67  CG        52.1220   -8.3420   36.7450 C.2   286  ASN286      0.2627
     68  OD1       52.1710   -8.4470   35.5140 O.2   286  ASN286     -0.2716
     69  ND2       53.2090   -8.3500   37.5050 N.am  286  ASN286     -0.0877
     70  N         45.9050   -9.9360   43.7680 N.3   311  ASN311     -0.1225
     71  CA        46.9820   -9.0180   44.1190 C.3   311  ASN311      0.1785
     72  C         48.1380   -9.2920   43.1740 C.2   311  ASN311      0.2598
     73  O         48.8960  -10.2270   43.3990 O.2   311  ASN311     -0.2718
     74  CB        47.4690   -9.2560   45.5600 C.3   311  ASN311      0.1169
     75  CG        46.3930   -9.0140   46.6010 C.2   311  ASN311      0.2627
     76  OD1       45.3920   -9.7300   46.6580 O.2   311  ASN311     -0.2716
     77  ND2       46.6070   -7.9990   47.4480 N.am  311  ASN311     -0.0877
     78  N         48.2810   -8.4930   42.1230 N.am  312  GLY312     -0.1942
     79  CA        49.2830   -8.7740   41.0960 C.3   312  GLY312      0.2014
     80  C         49.0740  -10.1670   40.5040 C.2   312  GLY312      0.2639
     81  O         48.0050  -10.4720   39.9770 O.2   312  GLY312     -0.2714
     82  N         50.0980  -11.0080   40.6030 N.am  313  ASP313     -0.1957
     83  CA        50.0330  -12.3920   40.1370 C.3   313  ASP313      0.1840
     84  C         49.4230  -13.3440   41.1640 C.2   313  ASP313      0.2622
     85  O         49.3240  -14.5540   40.9110 O.2   313  ASP313     -0.2715
     86  CB        51.4260  -12.8990   39.7790 C.3   313  ASP313      0.1450
     87  CG        52.3440  -12.9800   40.9680 C.2   313  ASP313      0.3671
     88  OD1       52.0730  -12.3330   41.9970 O.co2 313  ASP313     -0.2456
     89  OD2       53.3560  -13.6940   40.8770 O.co2 313  ASP313     -0.2456
     90  N         49.0440  -12.8120   42.3250 N.am  314  ASP314     -0.1971
     91  CA        48.5020  -13.6440   43.3890 C.3   314  ASP314      0.1709
     92  C         46.9980  -13.7380   43.2380 C.2   314  ASP314      0.2293
     93  O         46.3050  -12.7120   43.2170 O.2   314  ASP314     -0.2864
     94  CB        48.8910  -13.1110   44.7700 C.3   314  ASP314      0.1436
     95  CG        48.7920  -14.1670   45.8540 C.2   314  ASP314      0.3671
     96  OD1       47.6600  -14.4360   46.3390 O.co2 314  ASP314     -0.2456
     97  OD2       49.8530  -14.7210   46.2300 O.co2 314  ASP314     -0.2456
     98  N         48.7040  -14.5910   49.0910 N.3   361  CYS361     -0.1221
     99  CA        49.5550  -13.4990   49.5490 C.3   361  CYS361      0.1808
    100  C         50.4330  -13.9590   50.7160 C.2   361  CYS361      0.2602
    101  O         50.6200  -13.2390   51.7190 O.2   361  CYS361     -0.2717
    102  CB        48.7460  -12.2390   49.8740 C.3   361  CYS361      0.0970
    103  SG        48.2480  -11.3550   48.3790 S.3   361  CYS361     -0.0800
    104  N         50.9650  -15.1740   50.5480 N.am  362  SER362     -0.1938
    105  CA        51.9140  -15.7920   51.4780 C.3   362  SER362      0.2055
    106  C         51.3280  -15.9970   52.8640 C.2   362  SER362      0.2643
    107  O         52.0570  -16.1060   53.8500 O.2   362  SER362     -0.2714
    108  CB        53.1980  -14.9590   51.5520 C.3   362  SER362      0.2130
    109  OG        53.8030  -14.8620   50.2810 O.3   362  SER362     -0.2179
    110  N         50.0080  -16.0500   52.9370 N.am  363  SER363     -0.1949
    111  CA        49.3260  -15.9750   54.2100 C.3   363  SER363      0.1924
    112  C         48.0700  -16.8370   54.1870 C.2   363  SER363      0.2314
    113  O         47.5000  -17.0840   53.1250 O.2   363  SER363     -0.2863
    114  CB        48.9360  -14.5160   54.5090 C.3   363  SER363      0.2116
    115  OG        49.9680  -13.5950   54.1410 O.3   363  SER363     -0.2180
    116  N         45.0460  -12.8490   59.8880 N.3   379  LEU379     -0.1245
    117  CA        45.9930  -13.3010   58.8710 C.3   379  LEU379      0.1561
    118  C         47.3630  -13.6220   59.4760 C.2   379  LEU379      0.2260
    119  O         47.9260  -12.8290   60.2290 O.2   379  LEU379     -0.2867
    120  CB        46.1130  -12.2660   57.7500 C.3   379  LEU379      0.0270
    121  CG        45.9560  -12.7010   56.2910 C.3   379  LEU379      0.0019
    122  CD1       45.2050  -14.0280   56.1450 C.3   379  LEU379      0.0001
    123  CD2       45.2430  -11.6100   55.5120 C.3   379  LEU379      0.0001
    124  N         62.0270   -5.1650   56.8840 N.3   402  SER402     -0.1217
    125  CA        60.9550   -6.1700   56.8250 C.3   402  SER402      0.1889
    126  C         60.3570   -6.4660   58.1890 C.2   402  SER402      0.2288
    127  O         59.1490   -6.6240   58.2910 O.2   402  SER402     -0.2866
    128  CB        61.4360   -7.4550   56.1570 C.3   402  SER402      0.2089
    129  OG        62.4730   -8.0500   56.9070 O.3   402  SER402     -0.2183
    130  N         57.7270   -3.8240   58.8400 N.3   405  GLY405     -0.1210
    131  CA        56.6270   -4.1190   57.9260 C.3   405  GLY405      0.1956
    132  C         55.8460   -5.3380   58.3860 C.2   405  GLY405      0.2611
    133  O         54.6150   -5.3410   58.3720 O.2   405  GLY405     -0.2717
    134  N         56.5650   -6.3720   58.8140 N.am  406  ASN406     -0.1974
    135  CA        55.9320   -7.5660   59.3690 C.3   406  ASN406      0.1688
    136  C         55.1730   -7.2950   60.6610 C.2   406  ASN406      0.2292
    137  O         54.0710   -7.8040   60.8390 O.2   406  ASN406     -0.2864
    138  CB        56.9560   -8.6850   59.5980 C.3   406  ASN406      0.1181
    139  CG        57.2880   -9.4220   58.3330 C.2   406  ASN406      0.2629
    140  OD1       56.4080   -9.6700   57.5060 O.2   406  ASN406     -0.2716
    141  ND2       58.5590   -9.7740   58.1610 N.am  406  ASN406     -0.0877
    142  N         51.9110   -5.6450   59.3260 N.3   409  MET409     -0.1230
    143  CA        50.9350   -6.4880   58.6400 C.3   409  MET409      0.1702
    144  C         50.4660   -7.6900   59.4890 C.2   409  MET409      0.2592
    145  O         49.3100   -8.1110   59.3790 O.2   409  MET409     -0.2718
    146  CB        51.4620   -6.9430   57.2720 C.3   409  MET409      0.0401
    147  CG        51.8840   -5.8030   56.3790 C.3   409  MET409      0.0596
    148  SD        50.6270   -4.5050   56.1920 S.3   409  MET409     -0.1393
    149  CE        49.8480   -5.0440   54.6730 C.3   409  MET409      0.0692
    150  N         51.3430   -8.2080   60.3500 N.am  410  TYR410     -0.1976
    151  CA        51.0420   -9.4440   61.0890 C.3   410  TYR410      0.1639
    152  C         50.9960   -9.2630   62.5920 C.2   410  TYR410      0.2290
    153  O         51.2610  -10.2070   63.3510 O.2   410  TYR410     -0.2864
    154  CB        52.0580  -10.5320   60.7470 C.3   410  TYR410      0.0560
    155  CG        52.0150  -10.9610   59.3110 C.ar  410  TYR410     -0.0198
    156  CD1       50.9480  -11.7010   58.8270 C.ar  410  TYR410     -0.0009
    157  CD2       53.0470  -10.6370   58.4350 C.ar  410  TYR410     -0.0009
    158  CE1       50.8960  -12.0980   57.5000 C.ar  410  TYR410      0.0417
    159  CE2       53.0140  -11.0300   57.1130 C.ar  410  TYR410      0.0417
    160  CZ        51.9300  -11.7570   56.6510 C.ar  410  TYR410      0.1957
    161  OH        51.8790  -12.1630   55.3430 O.3   410  TYR410     -0.2866
    162  N         58.1450   -1.1640   53.5950 N.3   441  GLN441     -0.1231
    163  CA        57.3260   -1.2080   52.3940 C.3   441  GLN441      0.1698
    164  C         56.0120   -1.9240   52.6030 C.2   441  GLN441      0.2592
    165  O         55.9890   -3.1010   52.9450 O.2   441  GLN441     -0.2718
    166  CB        58.0760   -1.8800   51.2580 C.3   441  GLN441      0.0381
    167  CG        58.8710   -0.9440   50.4100 C.3   441  GLN441      0.0905
    168  CD        59.4160   -1.6280   49.1860 C.2   441  GLN441      0.2608
    169  OE1       60.1300   -1.0160   48.3880 O.2   441  GLN441     -0.2717
    170  NE2       59.0870   -2.9100   49.0260 N.am  441  GLN441     -0.0878
    171  N         54.9160   -1.2090   52.3780 N.am  442  ILE442     -0.1966
    172  CA        53.5840   -1.7730   52.5100 C.3   442  ILE442      0.1727
    173  C         52.8670   -1.7270   51.1630 C.2   442  ILE442      0.2616
    174  O         52.6310   -0.6500   50.6150 O.2   442  ILE442     -0.2715
    175  CB        52.7840   -1.0280   53.5850 C.3   442  ILE442      0.0290
    176  CG1       53.5270   -1.1190   54.9240 C.3   442  ILE442      0.0022
    177  CG2       51.3500   -1.5650   53.6660 C.3   442  ILE442      0.0023
    178  CD1       52.7840   -0.5640   56.1040 C.3   442  ILE442      0.0001
    179  N         52.5300   -2.9040   50.6390 N.am  443  TYR443     -0.1960
    180  CA        51.9740   -3.0440   49.2900 C.3   443  TYR443      0.1771
    181  C         52.8360   -2.4040   48.1960 C.2   443  TYR443      0.2620
    182  O         52.3090   -1.8240   47.2480 O.2   443  TYR443     -0.2715
    183  CB        50.5170   -2.5600   49.1980 C.3   443  TYR443      0.0574
    184  CG        49.5100   -3.4590   49.8890 C.ar  443  TYR443     -0.0198
    185  CD1       49.8140   -4.7840   50.1990 C.ar  443  TYR443     -0.0009
    186  CD2       48.2380   -2.9920   50.1970 C.ar  443  TYR443     -0.0009
    187  CE1       48.8820   -5.6150   50.8400 C.ar  443  TYR443      0.0417
    188  CE2       47.2940   -3.8110   50.8250 C.ar  443  TYR443      0.0417
    189  CZ        47.6230   -5.1180   51.1480 C.ar  443  TYR443      0.1957
    190  OH        46.6860   -5.9140   51.7730 O.3   443  TYR443     -0.2866
    191  N         54.1570   -2.5300   48.3350 N.am  444  GLY444     -0.1954
    192  CA        55.1060   -1.9950   47.3630 C.3   444  GLY444      0.1869
    193  C         55.5140   -0.5310   47.5100 C.2   444  GLY444      0.2309
    194  O         56.4830   -0.0880   46.8830 O.2   444  GLY444     -0.2863
    195  N         54.1120   -2.1140   43.8200 N.3   551  SER551     -0.1217
    196  CA        55.3820   -2.8340   43.8400 C.3   551  SER551      0.1889
    197  C         56.1900   -2.6080   42.5670 C.2   551  SER551      0.2288
    198  O         55.6910   -2.7640   41.4520 O.2   551  SER551     -0.2866
    199  CB        55.2230   -4.3460   44.1630 C.3   551  SER551      0.2089
    200  OG        54.4770   -5.0360   43.1750 O.3   551  SER551     -0.2183
@<TRIPOS>BOND
     1    44    43    2
     2    43    42    1
     3    33    32    2
     4    42    45    1
     5    42    41    1
     6    32    41   am
     7    32    31    1
     8    45    46    1
     9    68    67    2
    10    40    39   ar
    11    40    38   ar
    12    39    37   ar
    13    38    36   ar
    14    31    30    1
    15    31    34    1
    16    37    35   ar
    17    62    63    1
    18    46    47   ar
    19    46    48   ar
    20    36    35   ar
    21    63    64    1
    22    63    66    1
    23    35    34    1
    24    65    64    2
    25    67    66    1
    26    67    69   am
    27    54    53    1
    28    49    50    1
    29    50    53    1
    30    50    51    1
    31    52    51    2
    32    53    55    1
    33    51    56   am
    34    56    57    1
    35    59    58    2
    36    58    57    1
    37    86    83    1
    38    86    87    1
    39    81    80    2
    40    57    60    1
    41    83    82    1
    42    83    84    1
    43    80    82   am
    44    80    79    1
    45    89    87   ar
    46    85    84    2
    47    87    88   ar
    48    79    78    1
    49    84    90   am
    50    60    61    1
    51   198   197    2
    52    78    72   am
    53    90    91    1
    54   197   196    1
    55    72    73    2
    56    72    71    1
    57   200   199    1
    58    93    92    2
    59    92    91    1
    60    91    94    1
    61    70    71    1
    62   195   196    1
    63   196   199    1
    64    71    74    1
    65    10     8   ar
    66    10    11   ar
    67     8     6   ar
    68    94    95    1
    69    11     9   ar
    70    74    75    1
    71    95    97   ar
    72    95    96   ar
    73     6     5    1
    74     6     7   ar
    75     5     2    1
    76     9     7   ar
    77    75    76    2
    78    75    77   am
    79   194   193    2
    80     1     2    1
    81   182   181    2
    82   192   193    1
    83   192   191    1
    84     2     3    1
    85   181   191   am
    86   181   180    1
    87     3     4    2
    88   103   102    1
    89   169   168    2
    90   170   168   am
    91    98    99    1
    92   168   167    1
    93   183   180    1
    94   183   184    1
    95   180   179    1
    96    28    27    1
    97    29    27    1
    98    99   102    1
    99    99   100    1
   100   184   186   ar
   101   184   185   ar
   102    27    26    2
   103   186   188   ar
   104   185   187   ar
   105   109   108    1
   106   167   166    1
   107   104   100   am
   108   104   105    1
   109   174   173    2
   110   179   173   am
   111   100   101    2
   112   188   189   ar
   113   187   189   ar
   114   189   190    1
   115   173   172    1
   116   166   163    1
   117   105   108    1
   118   105   106    1
   119    26    25    1
   120    25    24    1
   121   171   172    1
   122   171   164   am
   123   163   164    1
   124   163   162    1
   125   172   175    1
   126   164   165    2
   127    24    23    1
   128   106   110   am
   129   106   107    2
   130   110   111    1
   131   113   112    2
   132    23    20    1
   133   175   177    1
   134   175   176    1
   135    22    21    2
   136    20    21    1
   137    20    19    1
   138   115   114    1
   139   112   111    1
   140   111   114    1
   141   149   148    1
   142   176   178    1
   143   161   160    1
   144   123   121    1
   145   122   121    1
   146   128   125    1
   147   128   129    1
   148   148   147    1
   149   121   120    1
   150    12    13    1
   151    12    18    1
   152   147   146    1
   153   160   159   ar
   154   160   158   ar
   155    13    14    1
   156    13    16    1
   157   125   124    1
   158   125   126    1
   159    15    14    2
   160    18    17    1
   161   159   157   ar
   162   146   143    1
   163    17    16    1
   164   158   156   ar
   165   140   139    2
   166   120   117    1
   167   131   132    1
   168   131   130    1
   169   141   139   am
   170   126   127    2
   171   139   138    1
   172   133   132    2
   173   132   134   am
   174   157   155   ar
   175   143   142    1
   176   143   144    1
   177   134   135    1
   178   156   155   ar
   179   117   118    1
   180   117   116    1
   181   155   154    1
   182   135   138    1
   183   135   136    1
   184   145   144    2
   185   118   119    2
   186   144   150   am
   187   150   151    1
   188   136   137    2
   189   154   151    1
   190   151   152    1
   191   152   153    2
