@<TRIPOS>MOLECULE
tmp/3bscA00.pdb
 212 201 0 0 0
SMALL
GASTEIGER

@<TRIPOS>ATOM
      1  N         87.2390    5.8000   59.1780 N.3   188  PHE188     -0.1241
      2  CA        87.9620    4.7340   58.4910 C.3   188  PHE188      0.1605
      3  C         87.0650    3.6840   57.8240 C.2   188  PHE188      0.2264
      4  O         87.5690    2.8110   57.1360 O.2   188  PHE188     -0.2867
      5  CB        88.9780    4.0370   59.4200 C.3   188  PHE188      0.0534
      6  CG        90.0890    4.9320   59.9100 C.ar  188  PHE188     -0.0203
      7  CD1       90.9150    5.5970   59.0170 C.ar  188  PHE188     -0.0042
      8  CD2       90.3190    5.0880   61.2710 C.ar  188  PHE188     -0.0042
      9  CE1       91.9440    6.4240   59.4670 C.ar  188  PHE188     -0.0003
     10  CE2       91.3480    5.9040   61.7350 C.ar  188  PHE188     -0.0003
     11  CZ        92.1660    6.5750   60.8250 C.ar  188  PHE188     -0.0000
     12  N         85.9110    4.6870   51.9360 N.3   191  SER191     -0.1203
     13  CA        86.8500    4.9580   50.8560 C.3   191  SER191      0.2005
     14  C         86.8410    6.4700   50.6290 C.2   191  SER191      0.2460
     15  O         86.0480    7.1810   51.2480 O.2   191  SER191     -0.2732
     16  CB        86.4000    4.2380   49.5940 C.3   191  SER191      0.2103
     17  OG        85.0270    4.4780   49.3620 O.3   191  SER191     -0.2182
     18  N         87.7510    6.9810   49.7840 N.am  192  PRO192     -0.2728
     19  CA        87.7120    8.3990   49.4180 C.3   192  PRO192      0.1401
     20  C         86.3580    8.9260   48.9420 C.2   192  PRO192      0.2269
     21  O         85.9110    9.9530   49.4420 O.2   192  PRO192     -0.2865
     22  CB        88.7590    8.4920   48.3150 C.3   192  PRO192      0.0296
     23  CG        89.7780    7.4600   48.7340 C.3   192  PRO192      0.0237
     24  CD        88.9250    6.3070   49.1950 C.3   192  PRO192      0.0939
     25  N         83.6890    9.0380   51.4360 N.3   195  ARG195     -0.1245
     26  CA        83.9160   10.0900   52.4170 C.3   195  ARG195      0.1563
     27  C         83.3710   11.4120   51.8750 C.2   195  ARG195      0.2260
     28  O         82.7360   12.1830   52.6010 O.2   195  ARG195     -0.2867
     29  CB        85.3930   10.1950   52.7800 C.3   195  ARG195      0.0307
     30  CG        85.7020   11.3150   53.7500 C.3   195  ARG195      0.0489
     31  CD        87.1910   11.3840   54.0620 C.3   195  ARG195      0.2205
     32  NE        87.4840   12.4490   55.0100 N.pl3 195  ARG195     -0.0865
     33  CZ        87.7390   12.2630   56.3020 C.cat 195  ARG195      0.5346
     34  NH1       87.7680   11.0400   56.8210 N.pl3 195  ARG195      0.1354
     35  NH2       87.9630   13.3130   57.0780 N.pl3 195  ARG195      0.1354
     36  N         98.5270   12.5300   71.0330 N.3   220  ASP220     -0.1239
     37  CA        99.1660   11.4720   71.8090 C.3   220  ASP220      0.1674
     38  C         99.5680   11.9180   73.2110 C.2   220  ASP220      0.2266
     39  O         99.3320   11.2110   74.1810 O.2   220  ASP220     -0.2867
     40  CB       100.4270   10.9710   71.0980 C.3   220  ASP220      0.1410
     41  CG       100.1250   10.0950   69.9160 C.2   220  ASP220      0.3668
     42  OD1       98.9340    9.8620   69.6200 O.co2 220  ASP220     -0.2456
     43  OD2      101.0970    9.6480   69.2760 O.co2 220  ASP220     -0.2456
     44  N         96.4490    2.0560   69.0230 N.3   282  THR282     -0.1203
     45  CA        96.7240    3.4900   68.8800 C.3   282  THR282      0.1994
     46  C         95.6260    4.2280   68.0900 C.2   282  THR282      0.2618
     47  O         95.0730    5.2340   68.5570 O.2   282  THR282     -0.2717
     48  CB        98.1260    3.7490   68.3010 C.3   282  THR282      0.1784
     49  OG1       99.0880    3.1310   69.1600 O.3   282  THR282     -0.2211
     50  CG2       98.4310    5.2620   68.2050 C.3   282  THR282      0.0376
     51  N         95.3090    3.7120   66.9080 N.am  283  SER283     -0.1951
     52  CA        94.2950    4.3100   66.0630 C.3   283  SER283      0.1924
     53  C         92.9050    4.2800   66.7010 C.2   283  SER283      0.2314
     54  O         92.2280    5.3090   66.7710 O.2   283  SER283     -0.2863
     55  CB        94.2540    3.5930   64.7220 C.3   283  SER283      0.2116
     56  OG        93.2080    4.1190   63.9370 O.3   283  SER283     -0.2180
     57  N         92.6850    6.5040   70.0790 N.3   286  ASN286     -0.1240
     58  CA        92.6530    7.9200   69.7560 C.3   286  ASN286      0.1653
     59  C         91.2830    8.3090   69.1880 C.2   286  ASN286      0.2266
     60  O         90.7030    9.3320   69.5650 O.2   286  ASN286     -0.2867
     61  CB        93.7550    8.2730   68.7580 C.3   286  ASN286      0.1155
     62  CG        95.1070    8.4330   69.4130 C.2   286  ASN286      0.2627
     63  OD1       95.2590    8.2430   70.6200 O.2   286  ASN286     -0.2716
     64  ND2       96.1040    8.7820   68.6150 N.am  286  ASN286     -0.0877
     65  N         88.8130   10.5570   62.5730 N.3   311  ASN311     -0.1225
     66  CA        89.8120    9.5950   62.1430 C.3   311  ASN311      0.1785
     67  C         91.0390    9.6490   63.0350 C.2   311  ASN311      0.2598
     68  O         91.9170   10.4730   62.8270 O.2   311  ASN311     -0.2718
     69  CB        90.2670    9.8810   60.7150 C.3   311  ASN311      0.1169
     70  CG        89.1870    9.6710   59.7050 C.2   311  ASN311      0.2627
     71  OD1       88.2480   10.4490   59.6280 O.2   311  ASN311     -0.2716
     72  ND2       89.3290    8.6420   58.8910 N.am  311  ASN311     -0.0877
     73  N         91.1320    8.7630   64.0110 N.am  312  GLY312     -0.1942
     74  CA        92.2560    8.8270   64.9300 C.3   312  GLY312      0.2014
     75  C         92.1930   10.1410   65.6780 C.2   312  GLY312      0.2639
     76  O         91.2420   10.3940   66.4060 O.2   312  GLY312     -0.2714
     77  N         93.1870   10.9960   65.4780 N.am  313  ASP313     -0.1957
     78  CA        93.2250   12.2810   66.1620 C.3   313  ASP313      0.1840
     79  C         92.6350   13.4070   65.3110 C.2   313  ASP313      0.2622
     80  O         92.6350   14.5660   65.7140 O.2   313  ASP313     -0.2715
     81  CB        94.6590   12.6180   66.6030 C.3   313  ASP313      0.1450
     82  CG        95.6090   12.9190   65.4300 C.2   313  ASP313      0.3671
     83  OD1       95.4620   12.3700   64.3140 O.co2 313  ASP313     -0.2456
     84  OD2       96.5440   13.7070   65.6470 O.co2 313  ASP313     -0.2456
     85  N         92.1280   13.0490   64.1370 N.am  314  ASP314     -0.1971
     86  CA        91.6930   14.0240   63.1590 C.3   314  ASP314      0.1709
     87  C         90.1850   14.1730   63.2820 C.2   314  ASP314      0.2293
     88  O         89.4450   13.1850   63.2300 O.2   314  ASP314     -0.2864
     89  CB        92.1190   13.5800   61.7560 C.3   314  ASP314      0.1436
     90  CG        92.0220   14.6930   60.7340 C.2   314  ASP314      0.3671
     91  OD1       90.8940   15.0750   60.3670 O.co2 314  ASP314     -0.2456
     92  OD2       93.0690   15.1790   60.2700 O.co2 314  ASP314     -0.2456
     93  N         91.6530   15.3410   57.5230 N.3   361  CYS361     -0.1235
     94  CA        92.5230   14.2390   57.0840 C.3   361  CYS361      0.1677
     95  C         93.4420   14.7050   55.9540 C.2   361  CYS361      0.2270
     96  O         93.7760   13.9370   55.0510 O.2   361  CYS361     -0.2867
     97  CB        91.7040   13.0290   56.6350 C.3   361  CYS361      0.0956
     98  SG        91.0390   12.0340   57.9720 S.3   361  CYS361     -0.0801
     99  N         92.8380   16.4920   53.5100 N.3   363  SER363     -0.1217
    100  CA        92.1600   16.5200   52.2180 C.3   363  SER363      0.1889
    101  C         90.9640   17.4410   52.2700 C.2   363  SER363      0.2288
    102  O         90.4600   17.7540   53.3580 O.2   363  SER363     -0.2866
    103  CB        91.6700   15.1310   51.8370 C.3   363  SER363      0.2089
    104  OG        92.5140   14.1310   52.3520 O.3   363  SER363     -0.2183
    105  N         87.7430   13.7750   46.2080 N.3   379  LEU379     -0.1245
    106  CA        88.6450   14.1780   47.2860 C.3   379  LEU379      0.1561
    107  C         90.0260   14.5060   46.7490 C.2   379  LEU379      0.2260
    108  O         90.5660   13.7800   45.9290 O.2   379  LEU379     -0.2867
    109  CB        88.7520   13.0650   48.3240 C.3   379  LEU379      0.0270
    110  CG        89.1990   13.5180   49.7090 C.3   379  LEU379      0.0019
    111  CD1       88.0490   14.1710   50.4840 C.3   379  LEU379      0.0001
    112  CD2       89.7380   12.3460   50.4710 C.3   379  LEU379      0.0001
    113  N         93.9930   16.8100   47.8550 N.3   381  ARG381     -0.1245
    114  CA        94.7950   17.5140   48.8350 C.3   381  ARG381      0.1563
    115  C         95.8260   18.3990   48.1530 C.2   381  ARG381      0.2260
    116  O         95.9740   18.3850   46.9380 O.2   381  ARG381     -0.2867
    117  CB        95.4960   16.5190   49.7640 C.3   381  ARG381      0.0307
    118  CG        96.4380   15.5350   49.0740 C.3   381  ARG381      0.0489
    119  CD        97.3090   14.8570   50.1010 C.3   381  ARG381      0.2205
    120  NE        98.1680   15.8070   50.8070 N.pl3 381  ARG381     -0.0865
    121  CZ        98.7520   15.5660   51.9810 C.cat 381  ARG381      0.5346
    122  NH1       98.5710   14.3990   52.5890 N.pl3 381  ARG381      0.1354
    123  NH2       99.5140   16.4960   52.5570 N.pl3 381  ARG381      0.1354
    124  N        104.6400    5.4240   48.9090 N.3   402  SER402     -0.1217
    125  CA       103.5340    6.3580   48.9990 C.3   402  SER402      0.1889
    126  C        102.9900    6.7930   47.6420 C.2   402  SER402      0.2288
    127  O        101.7960    7.0700   47.5340 O.2   402  SER402     -0.2866
    128  CB       103.9380    7.5890   49.7950 C.3   402  SER402      0.2089
    129  OG       104.8120    8.3820   49.0280 O.3   402  SER402     -0.2183
    130  N        100.2370    4.5180   46.8670 N.3   405  GLY405     -0.1210
    131  CA        99.1260    4.7940   47.7600 C.3   405  GLY405      0.1956
    132  C         98.4160    6.0470   47.3090 C.2   405  GLY405      0.2611
    133  O         97.1900    6.0830   47.2400 O.2   405  GLY405     -0.2717
    134  N         99.1890    7.0720   46.9710 N.am  406  ASN406     -0.1974
    135  CA        98.6080    8.3400   46.5360 C.3   406  ASN406      0.1688
    136  C         97.8220    8.1950   45.2570 C.2   406  ASN406      0.2292
    137  O         96.8460    8.8960   45.0670 O.2   406  ASN406     -0.2864
    138  CB        99.6610    9.4520   46.4020 C.3   406  ASN406      0.1181
    139  CG        99.9150   10.1820   47.7180 C.2   406  ASN406      0.2629
    140  OD1       98.9840   10.4360   48.4780 O.2   406  ASN406     -0.2716
    141  ND2      101.1730   10.5240   47.9880 N.am  406  ASN406     -0.0877
    142  N         94.4800    6.3880   46.4540 N.3   409  MET409     -0.1230
    143  CA        93.5880    7.2710   47.2010 C.3   409  MET409      0.1702
    144  C         93.2660    8.5700   46.4600 C.2   409  MET409      0.2592
    145  O         92.2190    9.2020   46.7130 O.2   409  MET409     -0.2718
    146  CB        94.1790    7.6060   48.5710 C.3   409  MET409      0.0401
    147  CG        94.6310    6.4080   49.3830 C.3   409  MET409      0.0596
    148  SD        93.2420    5.4470   50.0230 S.3   409  MET409     -0.1393
    149  CE        92.7560    6.4890   51.4120 C.3   409  MET409      0.0692
    150  N         94.1450    8.9830   45.5490 N.am  410  TYR410     -0.1976
    151  CA        93.9320   10.2600   44.8570 C.3   410  TYR410      0.1639
    152  C         93.8490   10.1620   43.3320 C.2   410  TYR410      0.2290
    153  O         94.1350   11.1280   42.6100 O.2   410  TYR410     -0.2864
    154  CB        94.9670   11.3000   45.3060 C.3   410  TYR410      0.0560
    155  CG        94.7930   11.6910   46.7480 C.ar  410  TYR410     -0.0198
    156  CD1       93.7550   12.5350   47.1400 C.ar  410  TYR410     -0.0009
    157  CD2       95.6500   11.1940   47.7250 C.ar  410  TYR410     -0.0009
    158  CE1       93.5900   12.8850   48.4730 C.ar  410  TYR410      0.0417
    159  CE2       95.4960   11.5270   49.0580 C.ar  410  TYR410      0.0417
    160  CZ        94.4710   12.3720   49.4300 C.ar  410  TYR410      0.1957
    161  OH        94.3260   12.6930   50.7540 O.3   410  TYR410     -0.2866
    162  N        100.9920    1.8580   51.9970 N.3   441  GLN441     -0.1231
    163  CA       100.1470    1.9990   53.1880 C.3   441  GLN441      0.1698
    164  C         98.7780    2.6520   52.9540 C.2   441  GLN441      0.2592
    165  O         98.6680    3.6600   52.2780 O.2   441  GLN441     -0.2718
    166  CB       100.8930    2.7440   54.2900 C.3   441  GLN441      0.0381
    167  CG       101.6730    1.8400   55.2330 C.3   441  GLN441      0.0905
    168  CD       102.1060    2.5540   56.5050 C.2   441  GLN441      0.2608
    169  OE1      102.0270    3.7780   56.6010 O.2   441  GLN441     -0.2717
    170  NE2      102.5690    1.7890   57.4850 N.am  441  GLN441     -0.0878
    171  N         97.7400    2.0520   53.5250 N.am  442  ILE442     -0.1966
    172  CA        96.3910    2.6030   53.4900 C.3   442  ILE442      0.1727
    173  C         95.7590    2.5260   54.8750 C.2   442  ILE442      0.2616
    174  O         95.5820    1.4340   55.4300 O.2   442  ILE442     -0.2715
    175  CB        95.4870    1.8920   52.4650 C.3   442  ILE442      0.0290
    176  CG1       95.9960    2.1340   51.0360 C.3   442  ILE442      0.0022
    177  CG2       94.0360    2.3790   52.6010 C.3   442  ILE442      0.0023
    178  CD1       95.3400    1.2340   49.9880 C.3   442  ILE442      0.0001
    179  N         95.4190    3.7030   55.4070 N.am  443  TYR443     -0.1960
    180  CA        94.9420    3.8780   56.7800 C.3   443  TYR443      0.1771
    181  C         95.8140    3.1490   57.8090 C.2   443  TYR443      0.2620
    182  O         95.2970    2.5180   58.7330 O.2   443  TYR443     -0.2715
    183  CB        93.4820    3.4500   56.9500 C.3   443  TYR443      0.0574
    184  CG        92.4460    4.2810   56.2290 C.ar  443  TYR443     -0.0198
    185  CD1       92.6980    5.5850   55.8480 C.ar  443  TYR443     -0.0009
    186  CD2       91.1800    3.7590   55.9790 C.ar  443  TYR443     -0.0009
    187  CE1       91.7370    6.3300   55.2050 C.ar  443  TYR443      0.0417
    188  CE2       90.2090    4.5030   55.3510 C.ar  443  TYR443      0.0417
    189  CZ        90.4960    5.7790   54.9600 C.ar  443  TYR443      0.1957
    190  OH        89.5250    6.5040   54.3210 O.3   443  TYR443     -0.2866
    191  N         97.1310    3.2480   57.6350 N.am  444  GLY444     -0.1954
    192  CA        98.0960    2.6400   58.5420 C.3   444  GLY444      0.1869
    193  C         98.4750    1.2000   58.2400 C.2   444  GLY444      0.2309
    194  O         99.4260    0.6870   58.8150 O.2   444  GLY444     -0.2863
    195  N         94.6920    1.5690   61.4390 N.3   550  TYR550     -0.1227
    196  CA        95.7150    0.6940   62.0220 C.3   550  TYR550      0.1736
    197  C         97.0800    1.3700   62.1810 C.2   550  TYR550      0.2596
    198  O         98.0810    0.7030   62.4330 O.2   550  TYR550     -0.2718
    199  CB        95.8590   -0.6030   61.2110 C.3   550  TYR550      0.0548
    200  CG        94.6020   -1.4570   61.1420 C.ar  550  TYR550     -0.0200
    201  CD1       94.2330   -2.2860   62.1950 C.ar  550  TYR550     -0.0009
    202  CD2       93.7810   -1.4320   60.0160 C.ar  550  TYR550     -0.0009
    203  CE1       93.0840   -3.0610   62.1330 C.ar  550  TYR550      0.0417
    204  CE2       92.6410   -2.2050   59.9400 C.ar  550  TYR550      0.0417
    205  CZ        92.2850   -3.0200   60.9990 C.ar  550  TYR550      0.1957
    206  OH        91.1300   -3.7980   60.9040 O.3   550  TYR550     -0.2866
    207  N         97.1150    2.6960   62.0690 N.am  551  SER551     -0.1952
    208  CA        98.3800    3.4420   62.0530 C.3   551  SER551      0.1924
    209  C         99.2100    3.2240   63.3110 C.2   551  SER551      0.2314
    210  O         98.7060    3.3710   64.4270 O.2   551  SER551     -0.2863
    211  CB        98.1310    4.9340   61.8130 C.3   551  SER551      0.2116
    212  OG        97.0740    5.4120   62.6330 O.3   551  SER551     -0.2180
@<TRIPOS>BOND
     1   153   152    2
     2   152   151    1
     3   151   154    1
     4   151   150    1
     5   137   136    2
     6   136   135    1
     7   154   155    1
     8   150   144   am
     9   108   107    2
    10   105   106    1
    11   138   135    1
    12   138   139    1
    13   142   143    1
    14   144   145    2
    15   144   143    1
    16   135   134    1
    17   155   156   ar
    18   155   157   ar
    19   107   106    1
    20   130   131    1
    21   116   115    2
    22   134   132   am
    23   156   158   ar
    24   143   146    1
    25   133   132    2
    26   106   109    1
    27   132   131    1
    28   127   126    2
    29   126   125    1
    30   139   141   am
    31   139   140    2
    32   157   159   ar
    33   113   114    1
    34   115   114    1
    35    22    23    1
    36    22    19    1
    37   109   110    1
    38   158   160   ar
    39   146   147    1
    40    23    24    1
    41   114   117    1
    42   124   125    1
    43    20    19    1
    44    20    21    2
    45   125   128    1
    46   129   128    1
    47   159   160   ar
    48   118   117    1
    49   118   119    1
    50    24    18    1
    51    17    16    1
    52   147   148    1
    53    19    18    1
    54   160   161    1
    55    16    13    1
    56   110   112    1
    57   110   111    1
    58    18    14   am
    59   178   176    1
    60   148   149    1
    61   119   120    1
    62    14    13    1
    63    14    15    2
    64   120   121    2
    65    13    12    1
    66   176   175    1
    67    25    26    1
    68   103   100    1
    69   103   104    1
    70    27    26    1
    71    27    28    2
    72   121   123    1
    73   121   122    1
    74   162   163    1
    75   100   101    1
    76   100    99    1
    77   101   102    2
    78   165   164    2
    79    26    29    1
    80   175   177    1
    81   175   172    1
    82    29    30    1
    83   164   163    1
    84   164   171   am
    85   163   166    1
    86   172   171    1
    87   172   173    1
    88    30    31    1
    89    31    32    1
    90   166   167    1
    91   190   189    1
    92   173   179   am
    93   173   174    2
    94   189   187   ar
    95   189   188   ar
    96    32    33    2
    97    96    95    2
    98   187   185   ar
    99   167   168    1
   100   188   186   ar
   101   179   180    1
   102   185   184   ar
   103    95    94    1
   104   186   184   ar
   105   184   183    1
   106    33    34    1
   107    33    35    1
   108   168   169    2
   109   168   170   am
   110    97    94    1
   111    97    98    1
   112   180   183    1
   113   180   181    1
   114    94    93    1
   115     4     3    2
   116   191   181   am
   117   191   192    1
   118   181   182    2
   119     3     2    1
   120   193   192    1
   121   193   194    2
   122     2     1    1
   123     2     5    1
   124    72    70   am
   125     7     9   ar
   126     7     6   ar
   127     5     6    1
   128     9    11   ar
   129    71    70    2
   130    70    69    1
   131     6     8   ar
   132   204   202   ar
   133   204   205   ar
   134   202   200   ar
   135    92    90   ar
   136    91    90   ar
   137    69    66    1
   138    90    89    1
   139    11    10   ar
   140   206   205    1
   141   205   203   ar
   142   200   199    1
   143   200   201   ar
   144   199   196    1
   145     8    10   ar
   146   195   196    1
   147    89    86    1
   148   211   208    1
   149   211   212    1
   150   196   197    1
   151   208   207    1
   152   208   209    1
   153   207   197   am
   154   203   201   ar
   155    66    65    1
   156    66    67    1
   157   197   198    2
   158    68    67    2
   159    67    73   am
   160    86    87    1
   161    86    85    1
   162    88    87    2
   163   209   210    2
   164    56    55    1
   165    73    74    1
   166    85    79   am
   167    83    82   ar
   168    55    52    1
   169    74    75    1
   170    79    80    2
   171    79    78    1
   172    82    84   ar
   173    82    81    1
   174    77    75   am
   175    77    78    1
   176    75    76    2
   177    52    53    1
   178    52    51    1
   179    78    81    1
   180    53    54    2
   181    51    46   am
   182    46    47    2
   183    46    45    1
   184    50    48    1
   185    48    45    1
   186    48    49    1
   187    64    62   am
   188    61    62    1
   189    61    58    1
   190    45    44    1
   191    59    60    2
   192    59    58    1
   193    43    41   ar
   194    62    63    2
   195    42    41   ar
   196    58    57    1
   197    41    40    1
   198    36    37    1
   199    40    37    1
   200    37    38    1
   201    38    39    2
