@<TRIPOS>MOLECULE
tmp/3bsdA06.pdb
 176 172 0 0 0
SMALL
GASTEIGER

@<TRIPOS>ATOM
      1  N         25.5490  121.0820  122.5010 N.3    34  ALA34      -0.1231
      2  CA        26.0440  122.4310  122.7440 C.3    34  ALA34       0.1694
      3  C         26.0060  123.2540  121.4500 C.2    34  ALA34       0.2593
      4  O         26.9360  124.0000  121.1590 O.2    34  ALA34      -0.2718
      5  CB        27.4490  122.3560  123.2960 C.3    34  ALA34       0.0304
      6  N         24.9500  123.0630  120.6510 N.am   35  SER35      -0.1939
      7  CA        24.6310  123.9520  119.5400 C.3    35  SER35       0.2040
      8  C         23.6910  125.0670  120.0110 C.2    35  SER35       0.2485
      9  O         22.6250  124.8100  120.5580 O.2    35  SER35      -0.2729
     10  CB        24.0190  123.1870  118.3660 C.3    35  SER35       0.2129
     11  OG        23.5390  124.0930  117.3900 O.3    35  SER35      -0.2179
     12  N         24.1220  126.3270  119.8650 N.am   36  PRO36      -0.2726
     13  CA        23.2480  127.4690  120.1870 C.3    36  PRO36       0.1402
     14  C         21.9940  127.6240  119.3100 C.2    36  PRO36       0.2269
     15  O         21.1110  128.4320  119.6420 O.2    36  PRO36      -0.2865
     16  CB        24.1850  128.6760  120.0830 C.3    36  PRO36       0.0296
     17  CG        25.3140  128.2270  119.2550 C.3    36  PRO36       0.0237
     18  CD        25.4840  126.7530  119.4900 C.3    36  PRO36       0.0939
     19  N         26.6220  115.9370  102.6160 N.3    64  PHE64      -0.1241
     20  CA        26.1880  116.4580  103.9070 C.3    64  PHE64       0.1605
     21  C         24.8400  117.1400  103.7420 C.2    64  PHE64       0.2264
     22  O         24.6750  118.0300  102.8890 O.2    64  PHE64      -0.2867
     23  CB        27.1720  117.4900  104.4050 C.3    64  PHE64       0.0534
     24  CG        28.5500  116.9570  104.6010 C.ar   64  PHE64      -0.0203
     25  CD1       29.4580  116.9370  103.5440 C.ar   64  PHE64      -0.0042
     26  CD2       28.9560  116.5020  105.8520 C.ar   64  PHE64      -0.0042
     27  CE1       30.7410  116.4460  103.7210 C.ar   64  PHE64      -0.0003
     28  CE2       30.2410  116.0120  106.0350 C.ar   64  PHE64      -0.0003
     29  CZ        31.1410  115.9950  104.9570 C.ar   64  PHE64      -0.0000
     30  N         25.4370  120.0350  101.1410 N.3    75  LEU75      -0.1245
     31  CA        26.7710  120.1770  100.5810 C.3    75  LEU75       0.1561
     32  C         27.2010  118.8350  100.0440 C.2    75  LEU75       0.2260
     33  O         27.1660  117.8250  100.7330 O.2    75  LEU75      -0.2867
     34  CB        27.8040  120.6900  101.6160 C.3    75  LEU75       0.0270
     35  CG        29.2120  120.8800  101.0000 C.3    75  LEU75       0.0019
     36  CD1       29.9160  122.1030  101.5200 C.3    75  LEU75       0.0001
     37  CD2       30.1350  119.6230  101.1280 C.3    75  LEU75       0.0001
     38  N         37.4180  129.9420  110.6830 N.3   178  PHE178     -0.1227
     39  CA        37.1380  129.0340  111.7920 C.3   178  PHE178      0.1736
     40  C         36.0110  129.5080  112.7090 C.2   178  PHE178      0.2595
     41  O         36.2020  129.8060  113.8880 O.2   178  PHE178     -0.2718
     42  CB        38.4570  128.6370  112.4910 C.3   178  PHE178      0.0547
     43  CG        39.4340  127.9890  111.5210 C.ar  178  PHE178     -0.0202
     44  CD1       40.4870  128.7110  110.9800 C.ar  178  PHE178     -0.0042
     45  CD2       39.2050  126.6880  111.0490 C.ar  178  PHE178     -0.0042
     46  CE1       41.3710  128.1130  110.0130 C.ar  178  PHE178     -0.0003
     47  CE2       40.0590  126.0890  110.0980 C.ar  178  PHE178     -0.0003
     48  CZ        41.1470  126.8130  109.5740 C.ar  178  PHE178     -0.0000
     49  N         34.8170  129.5530  112.1090 N.am  179  ILE179     -0.1966
     50  CA        33.5970  130.1220  112.7060 C.3   179  ILE179      0.1727
     51  C         33.2770  129.5160  114.0700 C.2   179  ILE179      0.2617
     52  O         33.4470  128.3090  114.2780 O.2   179  ILE179     -0.2715
     53  CB        32.3650  130.0240  111.7070 C.3   179  ILE179      0.0290
     54  CG1       31.1850  130.8760  112.1680 C.3   179  ILE179      0.0022
     55  CG2       31.9190  128.5810  111.5020 C.3   179  ILE179      0.0023
     56  CD1       30.0860  131.0610  111.1130 C.3   179  ILE179      0.0001
     57  N         32.8550  130.3650  115.0080 N.am  180  GLY180     -0.1941
     58  CA        32.4370  129.9150  116.3390 C.3   180  GLY180      0.1998
     59  C         33.5220  129.2740  117.1680 C.2   180  GLY180      0.2481
     60  O         34.6670  129.7870  117.1980 O.2   180  GLY180     -0.2729
     61  N         33.1900  128.1570  117.8570 N.am  181  PRO181     -0.2715
     62  CA        34.1870  127.3480  118.6080 C.3   181  PRO181      0.1536
     63  C         35.1740  126.5240  117.7520 C.2   181  PRO181      0.2598
     64  O         36.1410  125.9710  118.2780 O.2   181  PRO181     -0.2715
     65  CB        33.3200  126.4120  119.4170 C.3   181  PRO181      0.0310
     66  CG        32.0880  126.2510  118.5670 C.3   181  PRO181      0.0237
     67  CD        31.8300  127.6160  117.9980 C.3   181  PRO181      0.0939
     68  N         34.9490  126.4370  116.4470 N.am  182  ALA182     -0.1978
     69  CA        35.9660  125.8800  115.5610 C.3   182  ALA182      0.1597
     70  C         37.3340  126.5560  115.7730 C.2   182  ALA182      0.2287
     71  O         38.3760  125.8670  115.8020 O.2   182  ALA182     -0.2864
     72  CB        35.5310  126.0160  114.1150 C.3   182  ALA182      0.0319
     73  N         39.1120  125.1590  118.7020 N.3   185  ALA185     -0.1231
     74  CA        39.3920  123.7390  118.5400 C.3   185  ALA185      0.1694
     75  C         40.7240  123.5600  117.8620 C.2   185  ALA185      0.2591
     76  O         41.2850  122.4610  117.8260 O.2   185  ALA185     -0.2718
     77  CB        38.2880  123.0830  117.7690 C.3   185  ALA185      0.0304
     78  N         41.2310  124.6420  117.2890 N.am  186  LEU186     -0.1980
     79  CA        42.5340  124.6010  116.6630 C.3   186  LEU186      0.1596
     80  C         43.6160  124.3440  117.7330 C.2   186  LEU186      0.2287
     81  O         44.2770  123.3190  117.7120 O.2   186  LEU186     -0.2864
     82  CB        42.7820  125.9050  115.9240 C.3   186  LEU186      0.0297
     83  CG        42.0730  126.0240  114.5820 C.3   186  LEU186      0.0022
     84  CD1       42.3310  127.4470  114.1190 C.3   186  LEU186      0.0001
     85  CD2       42.5580  124.9150  113.5780 C.3   186  LEU186      0.0001
     86  N         46.9620  122.2900  116.9720 N.3   191  GLN191     -0.1245
     87  CA        46.8620  122.6270  115.5730 C.3   191  GLN191      0.1566
     88  C         46.9810  124.1350  115.3290 C.2   191  GLN191      0.2260
     89  O         46.3950  124.9510  116.0470 O.2   191  GLN191     -0.2867
     90  CB        45.5460  122.1150  115.0430 C.3   191  GLN191      0.0367
     91  CG        45.5310  121.8950  113.5580 C.3   191  GLN191      0.0905
     92  CD        44.2850  121.1650  113.0980 C.2   191  GLN191      0.2608
     93  OE1       43.4080  120.7880  113.9070 O.2   191  GLN191     -0.2717
     94  NE2       44.2040  120.9360  111.7940 N.am  191  GLN191     -0.0878
     95  N         46.9300  127.0260  112.0990 N.3   193  ILE193     -0.1245
     96  CA        46.7520  127.3920  110.7040 C.3   193  ILE193      0.1561
     97  C         47.5610  128.6490  110.4560 C.2   193  ILE193      0.2260
     98  O         47.3520  129.6850  111.1070 O.2   193  ILE193     -0.2867
     99  CB        45.2440  127.6440  110.3070 C.3   193  ILE193      0.0252
    100  CG1       44.2980  126.5480  110.8700 C.3   193  ILE193      0.0019
    101  CG2       45.1090  127.7830  108.8050 C.3   193  ILE193      0.0019
    102  CD1       44.3420  125.1620  110.1270 C.3   193  ILE193      0.0001
    103  N         45.6920  114.1880  110.7360 N.3   228  SER228     -0.1217
    104  CA        45.8430  114.5940  109.3500 C.3   228  SER228      0.1889
    105  C         47.3220  114.6600  108.9910 C.2   228  SER228      0.2288
    106  O         47.7120  114.3360  107.8750 O.2   228  SER228     -0.2866
    107  CB        45.2370  115.9730  109.1610 C.3   228  SER228      0.2089
    108  OG        43.8750  115.8920  108.8230 O.3   228  SER228     -0.2183
    109  N         42.1200  107.5500  116.3410 N.3   284  PRO284     -0.2116
    110  CA        42.5860  108.8980  116.0100 C.3   284  PRO284      0.1372
    111  C         42.3080  109.8400  117.2060 C.2   284  PRO284      0.2244
    112  O         41.3920  109.5980  117.9970 O.2   284  PRO284     -0.2868
    113  CB        41.7390  109.2690  114.7730 C.3   284  PRO284      0.0268
    114  CG        40.4950  108.4920  114.9180 C.3   284  PRO284      0.0207
    115  CD        41.0200  107.1400  115.4460 C.3   284  PRO284      0.0892
    116  N         42.1110  113.4240  117.2150 N.3   286  ILE286     -0.1231
    117  CA        41.3030  114.6370  116.9980 C.3   286  ILE286      0.1678
    118  C         39.8110  114.4140  117.2810 C.2   286  ILE286      0.2434
    119  O         39.1660  115.2750  117.8980 O.2   286  ILE286     -0.2733
    120  CB        41.5510  115.2620  115.5930 C.3   286  ILE286      0.0265
    121  CG1       42.9860  115.8450  115.5040 C.3   286  ILE286      0.0019
    122  CG2       40.4450  116.2680  115.2180 C.3   286  ILE286      0.0020
    123  CD1       43.3570  117.0440  116.4730 C.3   286  ILE286      0.0001
    124  N         39.2360  113.2810  116.8180 N.am  287  PRO287     -0.2729
    125  CA        37.8510  113.0570  117.2280 C.3   287  PRO287      0.1401
    126  C         37.5980  113.1650  118.7260 C.2   287  PRO287      0.2269
    127  O         36.6010  113.8070  119.1550 O.2   287  PRO287     -0.2865
    128  CB        37.5700  111.6560  116.7020 C.3   287  PRO287      0.0296
    129  CG        38.3450  111.6590  115.3810 C.3   287  PRO287      0.0237
    130  CD        39.6740  112.2360  115.8700 C.3   287  PRO287      0.0939
    131  N         38.4680  116.9910  120.1020 N.3   290  HIS290     -0.1226
    132  CA        37.3760  117.9030  119.7290 C.3   290  HIS290      0.1752
    133  C         36.0020  117.5630  120.3650 C.2   290  HIS290      0.2596
    134  O         35.2890  118.4730  120.7820 O.2   290  HIS290     -0.2718
    135  CB        37.2490  117.9620  118.2050 C.3   290  HIS290      0.0759
    136  CG        38.3620  118.6870  117.5170 C.ar  290  HIS290      0.0818
    137  ND1       38.2990  119.0380  116.1750 N.ar  290  HIS290     -0.2268
    138  CD2       39.5610  119.1240  117.9640 C.ar  290  HIS290      0.1154
    139  CE1       39.4220  119.6580  115.8380 C.ar  290  HIS290      0.1986
    140  NE2       40.2040  119.7200  116.9030 N.ar  290  HIS290     -0.2212
    141  N         35.6300  116.2850  120.4540 N.am  291  HIS291     -0.1975
    142  CA        34.3720  115.8940  121.1540 C.3   291  HIS291      0.1656
    143  C         34.5170  116.1810  122.6510 C.2   291  HIS291      0.2291
    144  O         33.5530  116.5530  123.3100 O.2   291  HIS291     -0.2864
    145  CB        33.9610  114.4150  120.9100 C.3   291  HIS291      0.0771
    146  CG        32.6300  114.0430  121.5190 C.ar  291  HIS291      0.0820
    147  ND1       32.4880  113.6390  122.8360 N.ar  291  HIS291     -0.2267
    148  CD2       31.3760  114.0450  120.9950 C.ar  291  HIS291      0.1154
    149  CE1       31.2130  113.4060  123.0940 C.ar  291  HIS291      0.1986
    150  NE2       30.5150  113.6380  121.9940 N.ar  291  HIS291     -0.2212
    151  N         35.5390  118.7860  123.8650 N.3   293  MET293     -0.1230
    152  CA        35.0950  120.1570  124.1170 C.3   293  MET293      0.1702
    153  C         33.6020  120.1960  124.3920 C.2   293  MET293      0.2592
    154  O         33.1270  121.1440  124.9930 O.2   293  MET293     -0.2718
    155  CB        35.4950  121.0510  122.9500 C.3   293  MET293      0.0401
    156  CG        36.9980  121.1630  122.8250 C.3   293  MET293      0.0596
    157  SD        37.5050  121.9120  121.2700 S.3   293  MET293     -0.1393
    158  CE        37.3830  123.6770  121.6640 C.3   293  MET293      0.0692
    159  N         32.8550  119.1540  124.0020 N.am  294  VAL294     -0.1980
    160  CA        31.4060  119.1410  124.2960 C.3   294  VAL294      0.1595
    161  C         30.9630  118.0840  125.3080 C.2   294  VAL294      0.2287
    162  O         29.8180  118.1530  125.8100 O.2   294  VAL294     -0.2864
    163  CB        30.5090  119.0110  123.0160 C.3   294  VAL294      0.0276
    164  CG1       30.6000  120.2580  122.1610 C.3   294  VAL294      0.0022
    165  CG2       30.8490  117.7500  122.2160 C.3   294  VAL294      0.0022
    166  N         29.6150  118.4170  129.8130 N.3   297  PHE297     -0.1241
    167  CA        28.5750  119.3420  130.3070 C.3   297  PHE297      0.1605
    168  C         27.4150  118.6680  131.0160 C.2   297  PHE297      0.2264
    169  O         26.6170  119.3410  131.5860 O.2   297  PHE297     -0.2867
    170  CB        28.0060  120.1920  129.1910 C.3   297  PHE297      0.0534
    171  CG        29.0420  120.9390  128.3900 C.ar  297  PHE297     -0.0203
    172  CD1       30.0510  121.6380  129.0140 C.ar  297  PHE297     -0.0042
    173  CD2       28.9660  120.9770  126.9920 C.ar  297  PHE297     -0.0042
    174  CE1       30.9920  122.3510  128.2500 C.ar  297  PHE297     -0.0003
    175  CE2       29.8760  121.7070  126.2510 C.ar  297  PHE297     -0.0003
    176  CZ        30.8960  122.3880  126.8690 C.ar  297  PHE297     -0.0000
@<TRIPOS>BOND
     1    32    31    1
     2    32    33    2
     3    31    30    1
     4    31    34    1
     5    35    37    1
     6    35    36    1
     7    35    34    1
     8    19    20    1
     9    22    21    2
    10    25    27   ar
    11    25    24   ar
    12    27    29   ar
    13    21    20    1
    14    20    23    1
    15    23    24    1
    16    24    26   ar
    17    29    28   ar
    18    26    28   ar
    19   106   105    2
    20   101    99    1
    21   108   107    1
    22   105   104    1
    23   107   104    1
    24   104   103    1
    25    48    46   ar
    26    48    47   ar
    27    46    44   ar
    28    47    45   ar
    29   102   100    1
    30    99    96    1
    31    99   100    1
    32    97    96    1
    33    97    98    2
    34    38    39    1
    35    96    95    1
    36    44    43   ar
    37    45    43   ar
    38    56    54    1
    39    55    53    1
    40    43    42    1
    41    53    54    1
    42    53    50    1
    43    39    42    1
    44    39    40    1
    45    94    92   am
    46    49    50    1
    47    49    40   am
    48    50    51    1
    49    40    41    2
    50    92    91    1
    51    92    93    2
    52    91    90    1
    53    85    83    1
    54    51    52    2
    55    51    57   am
    56    72    69    1
    57    84    83    1
    58    83    82    1
    59   113   114    1
    60   113   110    1
    61   114   115    1
    62    57    58    1
    63    90    87    1
    64   122   120    1
    65    88    87    1
    66    88    89    2
    67   129   130    1
    68   129   128    1
    69   115   109    1
    70   121   120    1
    71   121   123    1
    72    69    70    1
    73    69    68    1
    74    87    86    1
    75   120   117    1
    76    70    71    2
    77   139   137   ar
    78   139   140   ar
    79   130   124    1
    80    82    79    1
    81   110   109    1
    82   110   111    1
    83   137   136   ar
    84    58    59    1
    85    68    63   am
    86    79    78    1
    87    79    80    1
    88   128   125    1
    89   124   125    1
    90   124   118   am
    91   140   138   ar
    92   117   116    1
    93   117   118    1
    94    59    60    2
    95    59    61   am
    96   111   112    2
    97   125   126    1
    98   118   119    2
    99    78    75   am
   100    11    10    1
   101   136   138   ar
   102   136   135    1
   103    81    80    2
   104    63    64    2
   105    63    62    1
   106    77    74    1
   107    76    75    2
   108    61    67    1
   109    61    62    1
   110    75    74    1
   111    67    66    1
   112   135   132    1
   113    10     7    1
   114    74    73    1
   115    66    65    1
   116    62    65    1
   117   126   127    2
   118    17    18    1
   119    17    16    1
   120    14    15    2
   121    14    13    1
   122    18    12    1
   123     7     8    1
   124     7     6    1
   125   132   131    1
   126   132   133    1
   127    12     8   am
   128    12    13    1
   129     8     9    2
   130    16    13    1
   131   133   141   am
   132   133   134    2
   133   141   142    1
   134     6     3   am
   135   145   142    1
   136   145   146    1
   137   148   146   ar
   138   148   150   ar
   139   142   143    1
   140     4     3    2
   141   157   158    1
   142   157   156    1
   143     3     2    1
   144   146   147   ar
   145   150   149   ar
   146   164   163    1
   147   165   163    1
   148     1     2    1
   149   143   144    2
   150     2     5    1
   151   156   155    1
   152   147   149   ar
   153   155   152    1
   154   163   160    1
   155   151   152    1
   156   159   160    1
   157   159   153   am
   158   152   153    1
   159   160   161    1
   160   153   154    2
   161   161   162    2
   162   175   176   ar
   163   175   173   ar
   164   176   174   ar
   165   173   171   ar
   166   174   172   ar
   167   171   172   ar
   168   171   170    1
   169   170   167    1
   170   166   167    1
   171   167   168    1
   172   168   169    2
