@<TRIPOS>MOLECULE
tmp/3bsdA00.pdb
 220 209 0 0 0
SMALL
GASTEIGER

@<TRIPOS>ATOM
      1  N         25.4370  120.0350  101.1410 N.3    75  LEU75      -0.1245
      2  CA        26.7710  120.1770  100.5810 C.3    75  LEU75       0.1561
      3  C         27.2010  118.8350  100.0440 C.2    75  LEU75       0.2260
      4  O         27.1660  117.8250  100.7330 O.2    75  LEU75      -0.2867
      5  CB        27.8040  120.6900  101.6160 C.3    75  LEU75       0.0270
      6  CG        29.2120  120.8800  101.0000 C.3    75  LEU75       0.0019
      7  CD1       29.9160  122.1030  101.5200 C.3    75  LEU75       0.0001
      8  CD2       30.1350  119.6230  101.1280 C.3    75  LEU75       0.0001
      9  N         27.0760  123.7510   97.2330 N.3    97  VAL97      -0.1245
     10  CA        26.5240  124.0240   98.5540 C.3    97  VAL97       0.1561
     11  C         25.1220  124.6430   98.3620 C.2    97  VAL97       0.2260
     12  O         24.8470  125.2320   97.3160 O.2    97  VAL97      -0.2867
     13  CB        27.4730  124.9170   99.3840 C.3    97  VAL97       0.0252
     14  CG1       27.4980  126.3400   98.8640 C.3    97  VAL97       0.0019
     15  CG2       27.0760  124.9090  100.8420 C.3    97  VAL97       0.0019
     16  N         21.7510  126.4620  100.9740 N.3    99  VAL99      -0.1245
     17  CA        21.1400  126.8360  102.2460 C.3    99  VAL99       0.1561
     18  C         19.8400  127.5670  101.9360 C.2    99  VAL99       0.2260
     19  O         19.8720  128.6850  101.4120 O.2    99  VAL99      -0.2867
     20  CB        22.0220  127.8220  103.0750 C.3    99  VAL99       0.0252
     21  CG1       21.4230  128.0160  104.4040 C.3    99  VAL99       0.0019
     22  CG2       23.4510  127.3480  103.2050 C.3    99  VAL99       0.0019
     23  N         19.2660  129.5830   98.6240 N.3   102  PHE102     -0.1241
     24  CA        20.5770  129.8200   98.0310 C.3   102  PHE102      0.1605
     25  C         21.3300  128.5250   97.6810 C.2   102  PHE102      0.2264
     26  O         21.3720  127.5750   98.4650 O.2   102  PHE102     -0.2867
     27  CB        21.4280  130.7110   98.9570 C.3   102  PHE102      0.0534
     28  CG        22.7940  131.0140   98.4070 C.ar  102  PHE102     -0.0203
     29  CD1       22.9550  131.9640   97.3770 C.ar  102  PHE102     -0.0042
     30  CD2       23.9160  130.3360   98.8970 C.ar  102  PHE102     -0.0042
     31  CE1       24.2310  132.2390   96.8450 C.ar  102  PHE102     -0.0003
     32  CE2       25.1820  130.6060   98.3840 C.ar  102  PHE102     -0.0003
     33  CZ        25.3420  131.5480   97.3390 C.ar  102  PHE102     -0.0000
     34  N         25.2790  127.5950   95.5340 N.3   104  HIS104     -0.1241
     35  CA        26.2670  127.7120   94.4640 C.3   104  HIS104      0.1621
     36  C         26.9900  126.3850   94.1870 C.2   104  HIS104      0.2264
     37  O         26.8430  125.4170   94.9540 O.2   104  HIS104     -0.2867
     38  CB        27.2120  128.9090   94.6700 C.3   104  HIS104      0.0745
     39  CG        28.2430  128.7200   95.7310 C.ar  104  HIS104      0.0817
     40  ND1       29.4630  128.1270   95.4810 N.ar  104  HIS104     -0.2268
     41  CD2       28.2560  129.0810   97.0360 C.ar  104  HIS104      0.1154
     42  CE1       30.1720  128.1100   96.5930 C.ar  104  HIS104      0.1986
     43  NE2       29.4680  128.6970   97.5490 N.ar  104  HIS104     -0.2212
     44  N         30.9330  124.6550   92.5760 N.3   106  PHE106     -0.1241
     45  CA        32.3700  124.9260   92.5430 C.3   106  PHE106      0.1605
     46  C         33.1260  123.7720   91.8980 C.2   106  PHE106      0.2264
     47  O         32.6360  122.6460   91.9360 O.2   106  PHE106     -0.2867
     48  CB        32.9240  125.2120   93.9430 C.3   106  PHE106      0.0534
     49  CG        32.7120  124.0920   94.9380 C.ar  106  PHE106     -0.0203
     50  CD1       33.7190  123.1360   95.1670 C.ar  106  PHE106     -0.0042
     51  CD2       31.5410  124.0230   95.7110 C.ar  106  PHE106     -0.0042
     52  CE1       33.5470  122.1030   96.1220 C.ar  106  PHE106     -0.0003
     53  CE2       31.3600  122.9830   96.6540 C.ar  106  PHE106     -0.0003
     54  CZ        32.3710  122.0290   96.8610 C.ar  106  PHE106     -0.0000
     55  N         40.6930  127.1780   93.0420 N.3   143  MET143     -0.1245
     56  CA        39.2310  126.9670   93.0670 C.3   143  MET143      0.1570
     57  C         38.4410  127.9870   92.2530 C.2   143  MET143      0.2261
     58  O         38.8020  129.1640   92.1920 O.2   143  MET143     -0.2867
     59  CB        38.6810  126.8690   94.5030 C.3   143  MET143      0.0387
     60  CG        38.4860  128.1910   95.2200 C.3   143  MET143      0.0595
     61  SD        38.3510  127.9530   96.9930 S.3   143  MET143     -0.1393
     62  CE        37.7480  129.5730   97.4940 C.3   143  MET143      0.0692
     63  N         34.2730  129.2160   91.1880 N.3   145  VAL145     -0.1245
     64  CA        32.8460  129.1900   91.4530 C.3   145  VAL145      0.1561
     65  C         32.1940  130.1030   90.4330 C.2   145  VAL145      0.2260
     66  O         32.5700  131.2830   90.3340 O.2   145  VAL145     -0.2867
     67  CB        32.5060  129.6770   92.8870 C.3   145  VAL145      0.0252
     68  CG1       31.0220  130.0650   93.0080 C.3   145  VAL145      0.0019
     69  CG2       32.9280  128.6330   93.9670 C.3   145  VAL145      0.0019
     70  N         29.7060  132.6810   89.0740 N.3   147  LEU147     -0.1245
     71  CA        29.0630  133.8530   89.6850 C.3   147  LEU147      0.1561
     72  C         27.6960  134.0590   89.0330 C.2   147  LEU147      0.2260
     73  O         27.4920  134.9780   88.2210 O.2   147  LEU147     -0.2867
     74  CB        29.9470  135.1020   89.5240 C.3   147  LEU147      0.0270
     75  CG        31.4110  135.0140   90.0050 C.3   147  LEU147      0.0019
     76  CD1       32.1790  136.3270   89.8200 C.3   147  LEU147      0.0001
     77  CD2       31.4570  134.5900   91.4480 C.3   147  LEU147      0.0001
     78  N         24.2360  137.1880   94.8280 N.3   151  ASP151     -0.1225
     79  CA        24.8720  137.0830   96.1220 C.3   151  ASP151      0.1805
     80  C         26.3420  136.7350   95.8890 C.2   151  ASP151      0.2597
     81  O         27.2170  137.1910   96.6370 O.2   151  ASP151     -0.2718
     82  CB        24.1970  136.0270   97.0020 C.3   151  ASP151      0.1424
     83  CG        22.7820  136.3940   97.3800 C.2   151  ASP151      0.3668
     84  OD1       22.5730  137.3850   98.1340 O.co2 151  ASP151     -0.2456
     85  OD2       21.8690  135.6740   96.9330 O.co2 151  ASP151     -0.2456
     86  N         26.6040  135.9370   94.8520 N.am  152  LEU152     -0.1979
     87  CA        27.9620  135.4970   94.5460 C.3   152  LEU152      0.1596
     88  C         28.8500  136.6130   94.0000 C.2   152  LEU152      0.2287
     89  O         30.0340  136.6750   94.3510 O.2   152  LEU152     -0.2864
     90  CB        27.9680  134.3000   93.5810 C.3   152  LEU152      0.0297
     91  CG        27.3880  132.9860   94.1200 C.3   152  LEU152      0.0022
     92  CD1       26.8490  132.1010   93.0190 C.3   152  LEU152      0.0001
     93  CD2       28.4070  132.2270   95.0060 C.3   152  LEU152      0.0001
     94  N         29.5520  138.8890   97.1110 N.3   155  THR155     -0.1203
     95  CA        30.5850  138.3470   97.9870 C.3   155  THR155      0.1994
     96  C         31.9410  138.4060   97.2770 C.2   155  THR155      0.2617
     97  O         32.9470  138.7580   97.8900 O.2   155  THR155     -0.2717
     98  CB        30.2440  136.9050   98.5150 C.3   155  THR155      0.1784
     99  OG1       29.0640  136.9420   99.3220 O.3   155  THR155     -0.2211
    100  CG2       31.3720  136.3390   99.3530 C.3   155  THR155      0.0376
    101  N         31.9680  138.0970   95.9850 N.am  156  TRP156     -0.1975
    102  CA        33.1990  138.2930   95.2110 C.3   156  TRP156      0.1640
    103  C         33.7940  139.7110   95.3130 C.2   156  TRP156      0.2290
    104  O         34.9510  139.8820   95.7240 O.2   156  TRP156     -0.2864
    105  CB        33.0550  137.8650   93.7400 C.3   156  TRP156      0.0576
    106  CG        34.3390  137.2500   93.2820 C.ar  156  TRP156      0.0006
    107  CD1       34.9060  136.0810   93.7460 C.ar  156  TRP156      0.0946
    108  CD2       35.2560  137.7820   92.3280 C.ar  156  TRP156      0.0152
    109  NE1       36.1100  135.8510   93.1240 N.ar  156  TRP156     -0.2442
    110  CE2       36.3480  136.8750   92.2440 C.ar  156  TRP156      0.0810
    111  CE3       35.2650  138.9280   91.5300 C.ar  156  TRP156      0.0012
    112  CZ2       37.4290  137.0850   91.3890 C.ar  156  TRP156      0.0191
    113  CZ3       36.3390  139.1360   90.6840 C.ar  156  TRP156      0.0001
    114  CH2       37.4100  138.2200   90.6240 C.ar  156  TRP156      0.0015
    115  N         34.9580  140.7660   98.6820 N.3   159  THR159     -0.1218
    116  CA        36.2180  140.1000   99.0120 C.3   159  THR159      0.1862
    117  C         37.3810  140.7130   98.2550 C.2   159  THR159      0.2287
    118  O         38.4170  141.0300   98.8520 O.2   159  THR159     -0.2866
    119  CB        36.1850  138.5910   98.6910 C.3   159  THR159      0.1770
    120  OG1       35.0790  137.9710   99.3560 O.3   159  THR159     -0.2211
    121  CG2       37.4650  137.9280   99.1560 C.3   159  THR159      0.0375
    122  N         40.5730  142.2250  100.1320 N.3   163  ILE163     -0.1245
    123  CA        41.9720  142.0450   99.7630 C.3   163  ILE163      0.1561
    124  C         42.4810  143.3630   99.1620 C.2   163  ILE163      0.2260
    125  O         41.6970  144.1370   98.5810 O.2   163  ILE163     -0.2867
    126  CB        42.1290  140.8870   98.7390 C.3   163  ILE163      0.0252
    127  CG1       41.6860  139.5580   99.3730 C.3   163  ILE163      0.0019
    128  CG2       43.5670  140.7870   98.2070 C.3   163  ILE163      0.0019
    129  CD1       41.5910  138.3830   98.3790 C.3   163  ILE163      0.0001
    130  N         44.7300  140.8200  105.7990 N.3   169  PHE169     -0.1241
    131  CA        43.7120  139.9360  105.2640 C.3   169  PHE169      0.1605
    132  C         44.0890  138.4660  105.3770 C.2   169  PHE169      0.2264
    133  O         43.2880  137.6560  105.8230 O.2   169  PHE169     -0.2867
    134  CB        43.4190  140.2690  103.8070 C.3   169  PHE169      0.0534
    135  CG        42.3270  139.4310  103.2170 C.ar  169  PHE169     -0.0203
    136  CD1       41.0050  139.8830  103.2220 C.ar  169  PHE169     -0.0042
    137  CD2       42.6080  138.1720  102.6740 C.ar  169  PHE169     -0.0042
    138  CE1       39.9710  139.0890  102.6910 C.ar  169  PHE169     -0.0003
    139  CE2       41.5820  137.3720  102.1430 C.ar  169  PHE169     -0.0003
    140  CZ        40.2660  137.8300  102.1500 C.ar  169  PHE169     -0.0000
    141  N         41.6110  136.5280  108.1290 N.3   173  ILE173     -0.1245
    142  CA        40.7810  135.5270  107.4900 C.3   173  ILE173      0.1561
    143  C         40.4720  134.3030  108.3660 C.2   173  ILE173      0.2260
    144  O         39.4220  133.6650  108.2110 O.2   173  ILE173     -0.2867
    145  CB        41.4090  135.0590  106.1930 C.3   173  ILE173      0.0252
    146  CG1       40.3600  134.3440  105.3360 C.3   173  ILE173      0.0019
    147  CG2       42.6370  134.1850  106.4720 C.3   173  ILE173      0.0019
    148  CD1       39.1760  135.2110  104.9610 C.3   173  ILE173      0.0001
    149  N         37.3250  134.5440  110.3470 N.3   176  PHE176     -0.1227
    150  CA        36.1330  134.2750  109.5880 C.3   176  PHE176      0.1736
    151  C         36.0120  132.7970  109.2750 C.2   176  PHE176      0.2595
    152  O         34.9420  132.2430  109.3540 O.2   176  PHE176     -0.2718
    153  CB        36.1590  135.0600  108.2850 C.3   176  PHE176      0.0547
    154  CG        35.1570  134.5890  107.2940 C.ar  176  PHE176     -0.0202
    155  CD1       35.5240  133.7000  106.2890 C.ar  176  PHE176     -0.0042
    156  CD2       33.8350  135.0050  107.3790 C.ar  176  PHE176     -0.0042
    157  CE1       34.5900  133.2550  105.3600 C.ar  176  PHE176     -0.0003
    158  CE2       32.9040  134.5640  106.4710 C.ar  176  PHE176     -0.0003
    159  CZ        33.2840  133.6860  105.4520 C.ar  176  PHE176     -0.0000
    160  N         37.1350  132.1910  108.9020 N.am  177  TRP177     -0.1976
    161  CA        37.2470  130.8240  108.4180 C.3   177  TRP177      0.1640
    162  C         36.8290  129.8280  109.4920 C.2   177  TRP177      0.2290
    163  O         35.9830  128.9940  109.2460 O.2   177  TRP177     -0.2864
    164  CB        38.7220  130.6220  108.0340 C.3   177  TRP177      0.0576
    165  CG        39.1740  129.3150  107.4340 C.ar  177  TRP177      0.0006
    166  CD1       38.4690  128.1490  107.3080 C.ar  177  TRP177      0.0946
    167  CD2       40.4820  129.0480  106.9290 C.ar  177  TRP177      0.0152
    168  NE1       39.2470  127.1870  106.7400 N.ar  177  TRP177     -0.2442
    169  CE2       40.4900  127.7100  106.4890 C.ar  177  TRP177      0.0810
    170  CE3       41.6490  129.8250  106.7840 C.ar  177  TRP177      0.0012
    171  CZ2       41.6320  127.1130  105.9250 C.ar  177  TRP177      0.0191
    172  CZ3       42.7740  129.2440  106.2400 C.ar  177  TRP177      0.0001
    173  CH2       42.7630  127.8920  105.8150 C.ar  177  TRP177      0.0015
    174  N         47.4690  132.9120  105.1710 N.3   196  ILE196     -0.1245
    175  CA        47.3630  132.4830  103.7720 C.3   196  ILE196      0.1561
    176  C         48.3160  133.2860  102.8650 C.2   196  ILE196      0.2260
    177  O         48.9080  134.2800  103.2980 O.2   196  ILE196     -0.2867
    178  CB        45.8770  132.4360  103.2350 C.3   196  ILE196      0.0252
    179  CG1       45.2310  133.8260  103.1950 C.3   196  ILE196      0.0019
    180  CG2       45.0330  131.4650  104.0640 C.3   196  ILE196      0.0019
    181  CD1       43.8330  133.8760  102.5790 C.3   196  ILE196      0.0001
    182  N         47.7830  134.8110   98.8740 N.3   198  VAL198     -0.1245
    183  CA        46.9120  134.8550   97.7020 C.3   198  VAL198      0.1561
    184  C         47.7780  135.0380   96.4700 C.2   198  VAL198      0.2260
    185  O         48.4810  136.0430   96.3310 O.2   198  VAL198     -0.2867
    186  CB        45.8180  135.9470   97.7720 C.3   198  VAL198      0.0252
    187  CG1       44.9370  135.8760   96.5240 C.3   198  VAL198      0.0019
    188  CG2       44.9730  135.7940   99.0420 C.3   198  VAL198      0.0019
    189  N         43.7040  136.4320   91.4740 N.3   201  LEU201     -0.1245
    190  CA        42.2360  136.5420   91.3810 C.3   201  LEU201      0.1561
    191  C         41.8050  136.8370   89.9430 C.2   201  LEU201      0.2260
    192  O         42.1940  137.8610   89.3790 O.2   201  LEU201     -0.2867
    193  CB        41.6910  137.6350   92.3190 C.3   201  LEU201      0.0270
    194  CG        41.7310  137.5180   93.8530 C.3   201  LEU201      0.0019
    195  CD1       41.3300  138.8520   94.4680 C.3   201  LEU201      0.0001
    196  CD2       40.8450  136.3950   94.3780 C.3   201  LEU201      0.0001
    197  N         34.5390  133.1870   89.2870 N.3   212  GLY212     -0.1225
    198  CA        35.5060  133.7460   90.2380 C.3   212  GLY212      0.1811
    199  C         36.6100  132.7530   90.6100 C.2   212  GLY212      0.2280
    200  O         36.3270  131.6310   91.0670 O.2   212  GLY212     -0.2866
    201  N         40.3920  131.6900   92.4010 N.3   214  SER214     -0.1217
    202  CA        41.2750  131.9170   93.5350 C.3   214  SER214      0.1889
    203  C         42.4560  130.9640   93.5120 C.2   214  SER214      0.2288
    204  O         42.2870  129.7260   93.4520 O.2   214  SER214     -0.2866
    205  CB        40.5090  131.7110   94.8580 C.3   214  SER214      0.2089
    206  OG        39.1500  132.1200   94.7530 O.3   214  SER214     -0.2183
    207  N         45.3720  130.2030   96.0070 N.3   216  TRP216     -0.1241
    208  CA        45.8100  130.4600   97.3730 C.3   216  TRP216      0.1605
    209  C         46.4450  129.2510   98.0580 C.2   216  TRP216      0.2264
    210  O         46.1510  128.0860   97.7400 O.2   216  TRP216     -0.2867
    211  CB        44.6690  131.0450   98.2290 C.3   216  TRP216      0.0550
    212  CG        43.5240  130.0870   98.5110 C.ar  216  TRP216      0.0003
    213  CD1       42.6400  129.5600   97.5950 C.ar  216  TRP216      0.0946
    214  CD2       43.1370  129.5560   99.7920 C.ar  216  TRP216      0.0152
    215  NE1       41.7410  128.7360   98.2270 N.ar  216  TRP216     -0.2442
    216  CE2       42.0140  128.7190   99.5740 C.ar  216  TRP216      0.0810
    217  CE3       43.6230  129.7120  101.1070 C.ar  216  TRP216      0.0012
    218  CZ2       41.3740  128.0310  100.6240 C.ar  216  TRP216      0.0191
    219  CZ3       42.9910  129.0330  102.1380 C.ar  216  TRP216      0.0001
    220  CH2       41.8720  128.2070  101.8880 C.ar  216  TRP216      0.0015
@<TRIPOS>BOND
     1    73    72    2
     2    72    71    1
     3    70    71    1
     4   197   198    1
     5   192   191    2
     6    74    71    1
     7    74    75    1
     8    76    75    1
     9   191   190    1
    10    75    77    1
    11   198   199    1
    12    66    65    2
    13    65    64    1
    14   199   200    2
    15   114   113   ar
    16   114   112   ar
    17   113   111   ar
    18    63    64    1
    19   190   189    1
    20   190   193    1
    21   112   110   ar
    22    64    67    1
    23   111   108   ar
    24    46    47    2
    25    46    45    1
    26    58    57    2
    27   110   108   ar
    28   110   109   ar
    29    57    56    1
    30   193   194    1
    31   108   106   ar
    32   201   202    1
    33    45    44    1
    34    45    48    1
    35    67    68    1
    36    67    69    1
    37    92    91    1
    38    55    56    1
    39    56    59    1
    40   109   107   ar
    41   106   105    1
    42   106   107   ar
    43   204   203    2
    44   203   202    1
    45   202   205    1
    46    90    91    1
    47    90    87    1
    48   105   102    1
    49   194   196    1
    50   194   195    1
    51    48    49    1
    52    88    89    2
    53    88    87    1
    54    91    93    1
    55    36    35    1
    56    36    37    2
    57    35    38    1
    58    35    34    1
    59    59    60    1
    60    87    86    1
    61    38    39    1
    62   206   205    1
    63    78    79    1
    64    86    80   am
    65    49    50   ar
    66    49    51   ar
    67    50    52   ar
    68   102   103    1
    69   102   101    1
    70    60    61    1
    71   103   104    2
    72    40    39   ar
    73    40    42   ar
    74    51    53   ar
    75    39    41   ar
    76    80    79    1
    77    80    81    2
    78   101    96   am
    79   207   208    1
    80    79    82    1
    81    52    54   ar
    82   185   184    2
    83   184   183    1
    84   187   186    1
    85    42    43   ar
    86    53    54   ar
    87    31    33   ar
    88    31    29   ar
    89    85    83   ar
    90    61    62    1
    91    82    83    1
    92    41    43   ar
    93    94    95    1
    94     9    10    1
    95    96    97    2
    96    96    95    1
    97    12    11    2
    98    33    32   ar
    99   208   209    1
   100   208   211    1
   101    29    28   ar
   102    83    84   ar
   103   213   215   ar
   104   213   212   ar
   105    25    24    1
   106    25    26    2
   107   183   186    1
   108   183   182    1
   109   210   209    2
   110   186   188    1
   111    95    98    1
   112    24    23    1
   113    24    27    1
   114   128   126    1
   115   215   216   ar
   116   211   212    1
   117   117   118    2
   118   117   116    1
   119    11    10    1
   120   129   127    1
   121    32    30   ar
   122    28    30   ar
   123    28    27    1
   124   212   214   ar
   125    98    99    1
   126    98   100    1
   127    10    13    1
   128   125   124    2
   129   115   116    1
   130   119   116    1
   131   119   121    1
   132   119   120    1
   133   126   127    1
   134   126   123    1
   135    14    13    1
   136   124   123    1
   137    13    15    1
   138   216   214   ar
   139   216   218   ar
   140   123   122    1
   141   214   217   ar
   142     3     2    1
   143     3     4    2
   144     2     1    1
   145     2     5    1
   146   218   220   ar
   147    16    17    1
   148     6     8    1
   149     6     7    1
   150     6     5    1
   151   217   219   ar
   152    19    18    2
   153   220   219   ar
   154    18    17    1
   155   139   140   ar
   156   139   137   ar
   157   140   138   ar
   158    17    20    1
   159   181   179    1
   160   137   135   ar
   161   138   136   ar
   162   176   177    2
   163   176   175    1
   164    20    22    1
   165    20    21    1
   166   179   178    1
   167   135   136   ar
   168   135   134    1
   169   178   175    1
   170   178   180    1
   171   175   174    1
   172   134   131    1
   173   148   146    1
   174   131   132    1
   175   131   130    1
   176   146   145    1
   177   157   159   ar
   178   157   155   ar
   179   132   133    2
   180   159   158   ar
   181   173   171   ar
   182   173   172   ar
   183   171   169   ar
   184   145   147    1
   185   145   142    1
   186   172   170   ar
   187   155   154   ar
   188   158   156   ar
   189   169   168   ar
   190   169   167   ar
   191   168   166   ar
   192   170   167   ar
   193   167   165   ar
   194   154   156   ar
   195   154   153    1
   196   166   165   ar
   197   165   164    1
   198   142   141    1
   199   142   143    1
   200   164   161    1
   201   144   143    2
   202   153   150    1
   203   161   160    1
   204   161   162    1
   205   160   151   am
   206   163   162    2
   207   151   152    2
   208   151   150    1
   209   150   149    1
