@<TRIPOS>MOLECULE
tmp/3bsdA04.pdb
 226 212 0 0 0
SMALL
GASTEIGER

@<TRIPOS>ATOM
      1  N         31.9030   98.6190  110.2440 N.3    23  VAL23      -0.1245
      2  CA        31.7700   99.3630  111.4820 C.3    23  VAL23       0.1561
      3  C         30.3220   99.7710  111.6460 C.2    23  VAL23       0.2260
      4  O         29.7340  100.3730  110.7400 O.2    23  VAL23      -0.2867
      5  CB        32.6740  100.5960  111.4470 C.3    23  VAL23       0.0252
      6  CG1       32.6250  101.3190  112.7440 C.3    23  VAL23       0.0019
      7  CG2       34.1030  100.1560  111.1250 C.3    23  VAL23       0.0019
      8  N         25.1410  112.2270  106.7290 N.3    44  VAL44      -0.1245
      9  CA        26.3500  112.2600  105.9070 C.3    44  VAL44       0.1561
     10  C         26.5150  110.9190  105.1910 C.2    44  VAL44       0.2260
     11  O         26.2830  109.8520  105.7710 O.2    44  VAL44      -0.2867
     12  CB        27.6540  112.5120  106.7310 C.3    44  VAL44       0.0252
     13  CG1       28.8610  112.6010  105.8090 C.3    44  VAL44       0.0019
     14  CG2       27.5500  113.7680  107.5340 C.3    44  VAL44       0.0019
     15  N         29.3750  108.9930  102.6850 N.3    46  LEU46      -0.1245
     16  CA        30.6540  108.9750  101.9720 C.3    46  LEU46       0.1561
     17  C         30.8040  107.6800  101.2370 C.2    46  LEU46       0.2260
     18  O         30.5070  106.6230  101.7930 O.2    46  LEU46      -0.2867
     19  CB        31.8310  109.1390  102.9150 C.3    46  LEU46       0.0270
     20  CG        31.7500  110.1900  104.0120 C.3    46  LEU46       0.0019
     21  CD1       32.9980  110.0840  104.8240 C.3    46  LEU46       0.0001
     22  CD2       31.5530  111.5950  103.4440 C.3    46  LEU46       0.0001
     23  N         33.5900  105.6740   98.1860 N.3    48  VAL48      -0.1245
     24  CA        34.8580  105.7750   97.4780 C.3    48  VAL48       0.1561
     25  C         35.1150  104.5530   96.6090 C.2    48  VAL48       0.2260
     26  O         34.9180  103.4310   97.0540 O.2    48  VAL48      -0.2867
     27  CB        36.0210  106.0430   98.4230 C.3    48  VAL48       0.0252
     28  CG1       36.2080  104.8770   99.3650 C.3    48  VAL48       0.0019
     29  CG2       37.2620  106.3240   97.6260 C.3    48  VAL48       0.0019
     30  N         41.6130  107.5170   93.0860 N.3    58  VAL58      -0.1245
     31  CA        40.4120  107.1490   93.7740 C.3    58  VAL58       0.1561
     32  C         39.3860  108.2550   93.4520 C.2    58  VAL58       0.2260
     33  O         39.7510  109.4140   93.2420 O.2    58  VAL58      -0.2867
     34  CB        40.7160  107.0370   95.3230 C.3    58  VAL58       0.0252
     35  CG1       39.4770  107.1520   96.1620 C.3    58  VAL58       0.0019
     36  CG2       41.4720  105.7470   95.6450 C.3    58  VAL58       0.0019
     37  N         36.1650  109.8640   95.2390 N.3    60  ILE60      -0.1245
     38  CA        35.4460  109.8890   96.5140 C.3    60  ILE60       0.1561
     39  C         34.2580  110.8860   96.5100 C.2    60  ILE60       0.2260
     40  O         34.3640  111.9740   95.9430 O.2    60  ILE60      -0.2867
     41  CB        36.4310  110.1120   97.7010 C.3    60  ILE60       0.0252
     42  CG1       35.7170  109.9690   99.0420 C.3    60  ILE60       0.0019
     43  CG2       37.1670  111.4510   97.5840 C.3    60  ILE60       0.0019
     44  CD1       36.6380  110.1150  100.2330 C.3    60  ILE60       0.0001
     45  N         26.6220  115.9370  102.6160 N.3    64  PHE64      -0.1241
     46  CA        26.1880  116.4580  103.9070 C.3    64  PHE64       0.1605
     47  C         24.8400  117.1400  103.7420 C.2    64  PHE64       0.2264
     48  O         24.6750  118.0300  102.8890 O.2    64  PHE64      -0.2867
     49  CB        27.1720  117.4900  104.4050 C.3    64  PHE64       0.0534
     50  CG        28.5500  116.9570  104.6010 C.ar   64  PHE64      -0.0203
     51  CD1       29.4580  116.9370  103.5440 C.ar   64  PHE64      -0.0042
     52  CD2       28.9560  116.5020  105.8520 C.ar   64  PHE64      -0.0042
     53  CE1       30.7410  116.4460  103.7210 C.ar   64  PHE64      -0.0003
     54  CE2       30.2410  116.0120  106.0350 C.ar   64  PHE64      -0.0003
     55  CZ        31.1410  115.9950  104.9570 C.ar   64  PHE64      -0.0000
     56  N         25.4370  120.0350  101.1410 N.3    75  LEU75      -0.1245
     57  CA        26.7710  120.1770  100.5810 C.3    75  LEU75       0.1561
     58  C         27.2010  118.8350  100.0440 C.2    75  LEU75       0.2260
     59  O         27.1660  117.8250  100.7330 O.2    75  LEU75      -0.2867
     60  CB        27.8040  120.6900  101.6160 C.3    75  LEU75       0.0270
     61  CG        29.2120  120.8800  101.0000 C.3    75  LEU75       0.0019
     62  CD1       29.9160  122.1030  101.5200 C.3    75  LEU75       0.0001
     63  CD2       30.1350  119.6230  101.1280 C.3    75  LEU75       0.0001
     64  N         41.4120  111.7710   93.5610 N.3    81  ILE81      -0.1245
     65  CA        42.5690  111.9780   94.4590 C.3    81  ILE81       0.1561
     66  C         43.5890  110.8210   94.3820 C.2    81  ILE81       0.2260
     67  O         43.2230  109.6430   94.3030 O.2    81  ILE81      -0.2867
     68  CB        42.1380  112.1390   95.9360 C.3    81  ILE81       0.0252
     69  CG1       41.0990  113.2810   96.1230 C.3    81  ILE81       0.0019
     70  CG2       43.3510  112.3910   96.8270 C.3    81  ILE81       0.0019
     71  CD1       40.3080  113.1790   97.4130 C.3    81  ILE81       0.0001
     72  N         50.4230  114.8060   97.5380 N.3    89  ARG89      -0.1245
     73  CA        49.1940  114.1570   97.1260 C.3    89  ARG89       0.1563
     74  C         48.4050  115.2040   96.3670 C.2    89  ARG89       0.2260
     75  O         48.4350  116.3790   96.7520 O.2    89  ARG89      -0.2867
     76  CB        48.4280  113.7120   98.3740 C.3    89  ARG89       0.0307
     77  CG        47.1510  112.9250   98.1160 C.3    89  ARG89       0.0489
     78  CD        46.5280  112.5650   99.4470 C.3    89  ARG89       0.2205
     79  NE        47.3600  111.6020  100.1560 N.pl3  89  ARG89      -0.0865
     80  CZ        47.2860  111.3240  101.4550 C.cat  89  ARG89       0.5346
     81  NH1       48.0960  110.4140  101.9670 N.pl3  89  ARG89       0.1354
     82  NH2       46.4390  111.9480  102.2460 N.pl3  89  ARG89       0.1354
     83  N         45.8380  114.0230  113.4190 N.3   227  ASP227     -0.1225
     84  CA        45.8690  112.7430  112.6770 C.3   227  ASP227      0.1805
     85  C         46.1150  113.0140  111.2060 C.2   227  ASP227      0.2598
     86  O         46.6340  112.1810  110.5180 O.2   227  ASP227     -0.2718
     87  CB        44.5390  111.9620  112.8680 C.3   227  ASP227      0.1424
     88  CG        44.1220  111.8730  114.3260 C.2   227  ASP227      0.3668
     89  OD1       44.6350  110.9640  115.0010 O.co2 227  ASP227     -0.2456
     90  OD2       43.3180  112.7280  114.8180 O.co2 227  ASP227     -0.2456
     91  N         45.6920  114.1880  110.7360 N.am  228  SER228     -0.1952
     92  CA        45.8430  114.5940  109.3500 C.3   228  SER228      0.1924
     93  C         47.3220  114.6600  108.9910 C.2   228  SER228      0.2314
     94  O         47.7120  114.3360  107.8750 O.2   228  SER228     -0.2863
     95  CB        45.2370  115.9730  109.1610 C.3   228  SER228      0.2116
     96  OG        43.8750  115.8920  108.8230 O.3   228  SER228     -0.2180
     97  N         49.1630  111.0080  110.6440 N.3   231  ARG231     -0.1245
     98  CA        48.8090  109.7030  110.0590 C.3   231  ARG231      0.1563
     99  C         48.4720  109.7930  108.5840 C.2   231  ARG231      0.2260
    100  O         47.6540  109.0310  108.0540 O.2   231  ARG231     -0.2867
    101  CB        47.7320  109.0180  110.8920 C.3   231  ARG231      0.0307
    102  CG        48.1990  108.8780  112.3380 C.3   231  ARG231      0.0489
    103  CD        47.1360  108.4200  113.2810 C.3   231  ARG231      0.2205
    104  NE        46.6900  107.0400  113.0610 N.pl3 231  ARG231     -0.0865
    105  CZ        45.8150  106.4340  113.8550 C.cat 231  ARG231      0.5346
    106  NH1       45.3900  105.1810  113.6120 N.pl3 231  ARG231      0.1354
    107  NH2       45.3600  107.1170  114.9020 N.pl3 231  ARG231      0.1354
    108  N         48.2690  106.5480  106.2790 N.3   234  GLU234     -0.1231
    109  CA        47.2700  105.6040  106.8200 C.3   234  GLU234      0.1699
    110  C         45.8410  106.0400  106.5800 C.2   234  GLU234      0.2592
    111  O         44.9900  105.2260  106.1970 O.2   234  GLU234     -0.2718
    112  CB        47.5130  105.3880  108.3300 C.3   234  GLU234      0.0402
    113  CG        46.6980  104.2840  108.9970 C.3   234  GLU234      0.1161
    114  CD        46.7850  104.3160  110.5300 C.2   234  GLU234      0.3649
    115  OE1       46.1720  103.4270  111.1520 O.co2 234  GLU234     -0.2457
    116  OE2       47.4550  105.2150  111.1270 O.co2 234  GLU234     -0.2457
    117  N         45.5930  107.3270  106.7560 N.am  235  LEU235     -0.1966
    118  CA        44.2380  107.8300  106.6590 C.3   235  LEU235      0.1728
    119  C         43.7200  107.7800  105.2200 C.2   235  LEU235      0.2616
    120  O         42.5200  107.9730  104.9930 O.2   235  LEU235     -0.2715
    121  CB        44.0940  109.2300  107.2910 C.3   235  LEU235      0.0311
    122  CG        44.8640  110.3950  106.6650 C.3   235  LEU235      0.0022
    123  CD1       44.3270  110.7810  105.2490 C.3   235  LEU235      0.0001
    124  CD2       44.8140  111.5760  107.6070 C.3   235  LEU235      0.0001
    125  N         44.6280  107.5060  104.2740 N.am  236  PHE236     -0.1960
    126  CA        44.3160  107.3790  102.8520 C.3   236  PHE236      0.1756
    127  C         44.9010  106.0560  102.3210 C.2   236  PHE236      0.2461
    128  O         45.9510  106.0520  101.6590 O.2   236  PHE236     -0.2730
    129  CB        44.8170  108.6090  102.0660 C.3   236  PHE236      0.0574
    130  CG        44.5990  108.5350  100.5380 C.ar  236  PHE236     -0.0200
    131  CD1       45.6820  108.6300   99.6610 C.ar  236  PHE236     -0.0042
    132  CD2       43.3290  108.4060   99.9910 C.ar  236  PHE236     -0.0042
    133  CE1       45.5060  108.5770   98.2620 C.ar  236  PHE236     -0.0003
    134  CE2       43.1440  108.3550   98.6030 C.ar  236  PHE236     -0.0003
    135  CZ        44.2380  108.4390   97.7360 C.ar  236  PHE236     -0.0000
    136  N         44.2300  104.9130  102.6290 N.am  237  PRO237     -0.2716
    137  CA        44.6700  103.6420  102.0860 C.3   237  PRO237      0.1536
    138  C         44.1280  103.4150  100.6890 C.2   237  PRO237      0.2599
    139  O         43.3210  102.5020  100.4790 O.2   237  PRO237     -0.2715
    140  CB        44.0460  102.6360  103.0480 C.3   237  PRO237      0.0310
    141  CG        42.7530  103.2740  103.4440 C.3   237  PRO237      0.0237
    142  CD        43.0550  104.7360  103.5150 C.3   237  PRO237      0.0939
    143  N         44.5630  104.2370   99.7380 N.am  238  SER238     -0.1950
    144  CA        44.2720  103.9890   98.3320 C.3   238  SER238      0.1924
    145  C         44.7090  102.5830   97.9460 C.2   238  SER238      0.2314
    146  O         44.0010  101.8920   97.2190 O.2   238  SER238     -0.2863
    147  CB        44.9900  105.0080   97.4710 C.3   238  SER238      0.2116
    148  OG        46.3060  105.2270   97.9690 O.3   238  SER238     -0.2180
    149  N         42.1380   99.7370   98.5690 N.3   241  LEU241     -0.1245
    150  CA        40.8070   99.8950   97.9930 C.3   241  LEU241      0.1561
    151  C         40.6590   99.0740   96.7020 C.2   241  LEU241      0.2260
    152  O         40.8370   99.5750   95.5850 O.2   241  LEU241     -0.2867
    153  CB        40.4930  101.3760   97.7460 C.3   241  LEU241      0.0270
    154  CG        39.0230  101.7540   97.5390 C.3   241  LEU241      0.0019
    155  CD1       38.2620  101.7810   98.8840 C.3   241  LEU241      0.0001
    156  CD2       38.8920  103.0930   96.8000 C.3   241  LEU241      0.0001
    157  N         30.4820  104.8580  103.8960 N.3   247  VAL247     -0.1245
    158  CA        29.9500  105.1000  105.2510 C.3   247  VAL247      0.1561
    159  C         28.6830  106.0030  105.2790 C.2   247  VAL247      0.2260
    160  O         28.7030  107.1240  104.7390 O.2   247  VAL247     -0.2867
    161  CB        30.9630  105.8230  106.2350 C.3   247  VAL247      0.0252
    162  CG1       30.5720  105.5370  107.6790 C.3   247  VAL247      0.0019
    163  CG2       32.3830  105.4550  105.9920 C.3   247  VAL247      0.0019
    164  N         26.3620  107.9790  108.0520 N.3   249  ALA249     -0.1245
    165  CA        26.2570  108.4270  109.4330 C.3   249  ALA249      0.1562
    166  C         25.1600  109.4820  109.5580 C.2   249  ALA249      0.2260
    167  O         24.8810  110.2150  108.6100 O.2   249  ALA249     -0.2867
    168  CB        27.5640  108.9770  109.8940 C.3   249  ALA249      0.0290
    169  N         25.5960  104.8710  112.7590 N.3   262  VAL262     -0.1245
    170  CA        26.7060  104.7840  111.8250 C.3   262  VAL262      0.1561
    171  C         26.8040  103.3560  111.2720 C.2   262  VAL262      0.2260
    172  O         26.6630  102.3720  111.9970 O.2   262  VAL262     -0.2867
    173  CB        28.0520  105.2350  112.4980 C.3   262  VAL262      0.0252
    174  CG1       29.3010  104.8870  111.6470 C.3   262  VAL262      0.0019
    175  CG2       28.0270  106.7540  112.8210 C.3   262  VAL262      0.0019
    176  N         34.9380   99.7680  104.9000 N.3   266  PHE266     -0.1228
    177  CA        36.1170  100.4560  104.3660 C.3   266  PHE266      0.1721
    178  C         37.3730   99.8170  104.9010 C.2   266  PHE266      0.2437
    179  O         37.3160   99.1830  105.9500 O.2   266  PHE266     -0.2733
    180  CB        36.1060  101.9400  104.7390 C.3   266  PHE266      0.0547
    181  CG        35.7330  102.2070  106.1650 C.ar  266  PHE266     -0.0202
    182  CD1       36.7260  102.2800  107.1640 C.ar  266  PHE266     -0.0042
    183  CD2       34.3830  102.4190  106.5280 C.ar  266  PHE266     -0.0042
    184  CE1       36.3870  102.5280  108.5030 C.ar  266  PHE266     -0.0003
    185  CE2       34.0270  102.7020  107.8780 C.ar  266  PHE266     -0.0003
    186  CZ        35.0390  102.7480  108.8580 C.ar  266  PHE266     -0.0000
    187  N         38.4960   99.9180  104.1500 N.am  267  PRO267     -0.2718
    188  CA        39.8150   99.4520  104.6310 C.3   267  PRO267      0.1535
    189  C         40.4230  100.3520  105.6900 C.2   267  PRO267      0.2599
    190  O         40.0130  101.5250  105.8260 O.2   267  PRO267     -0.2715
    191  CB        40.6890   99.4960  103.3670 C.3   267  PRO267      0.0310
    192  CG        40.0580  100.5450  102.5060 C.3   267  PRO267      0.0237
    193  CD        38.5620  100.3970  102.7480 C.3   267  PRO267      0.0939
    194  N         41.3840   99.8140  106.4380 N.am  268  GLY268     -0.1941
    195  CA        42.0800  100.6200  107.4340 C.3   268  GLY268      0.2014
    196  C         41.7110  100.3290  108.8770 C.2   268  GLY268      0.2638
    197  O         42.3340  100.8580  109.7750 O.2   268  GLY268     -0.2714
    198  N         40.7440   99.4370  109.0840 N.am  269  VAL269     -0.1977
    199  CA        40.1570   99.1420  110.3990 C.3   269  VAL269      0.1596
    200  C         41.1450   98.3880  111.2810 C.2   269  VAL269      0.2287
    201  O         41.3260   98.7450  112.4670 O.2   269  VAL269     -0.2864
    202  CB        38.8100   98.3540  110.2090 C.3   269  VAL269      0.0276
    203  CG1       38.1680   97.9640  111.5350 C.3   269  VAL269      0.0022
    204  CG2       37.8260   99.1660  109.3410 C.3   269  VAL269      0.0022
    205  N         43.1610   99.7860  114.3080 N.3   281  LEU281     -0.1245
    206  CA        44.0420  100.9430  114.1730 C.3   281  LEU281      0.1561
    207  C         43.9380  101.7580  115.4390 C.2   281  LEU281      0.2260
    208  O         42.9170  101.6910  116.1530 O.2   281  LEU281     -0.2867
    209  CB        43.6870  101.7780  112.9340 C.3   281  LEU281      0.0270
    210  CG        42.4820  102.7260  112.9570 C.3   281  LEU281      0.0019
    211  CD1       42.4550  103.4990  111.6320 C.3   281  LEU281      0.0001
    212  CD2       41.1520  102.0180  113.2380 C.3   281  LEU281      0.0001
    213  N         42.1200  107.5500  116.3410 N.3   284  PRO284     -0.2116
    214  CA        42.5860  108.8980  116.0100 C.3   284  PRO284      0.1372
    215  C         42.3080  109.8400  117.2060 C.2   284  PRO284      0.2244
    216  O         41.3920  109.5980  117.9970 O.2   284  PRO284     -0.2868
    217  CB        41.7390  109.2690  114.7730 C.3   284  PRO284      0.0268
    218  CG        40.4950  108.4920  114.9180 C.3   284  PRO284      0.0207
    219  CD        41.0200  107.1400  115.4460 C.3   284  PRO284      0.0892
    220  N         39.2360  113.2810  116.8180 N.3   287  PRO287     -0.2116
    221  CA        37.8510  113.0570  117.2280 C.3   287  PRO287      0.1372
    222  C         37.5980  113.1650  118.7260 C.2   287  PRO287      0.2244
    223  O         36.6010  113.8070  119.1550 O.2   287  PRO287     -0.2868
    224  CB        37.5700  111.6560  116.7020 C.3   287  PRO287      0.0268
    225  CG        38.3450  111.6590  115.3810 C.3   287  PRO287      0.0207
    226  CD        39.6740  112.2360  115.8700 C.3   287  PRO287      0.0892
@<TRIPOS>BOND
     1    30    31    1
     2    33    32    2
     3    32    31    1
     4    64    65    1
     5    31    34    1
     6    67    66    2
     7    66    65    1
     8    65    68    1
     9    37    38    1
    10    34    36    1
    11    34    35    1
    12   152   151    2
    13    68    69    1
    14    68    70    1
    15    40    39    2
    16    69    71    1
    17    74    75    2
    18    74    73    1
    19    39    38    1
    20    38    41    1
    21    25    26    2
    22    25    24    1
    23   151   150    1
    24   156   154    1
    25    73    72    1
    26    73    76    1
    27   146   145    2
    28   147   148    1
    29   147   144    1
    30    24    23    1
    31    24    27    1
    32   154   153    1
    33   154   155    1
    34    43    41    1
    35    29    27    1
    36    41    42    1
    37   135   133   ar
    38   135   134   ar
    39   153   150    1
    40   145   144    1
    41   150   149    1
    42    77    76    1
    43    77    78    1
    44   133   131   ar
    45   144   143    1
    46    27    28    1
    47   134   132   ar
    48    42    44    1
    49    78    79    1
    50   131   130   ar
    51   143   138   am
    52   132   130   ar
    53    58    57    1
    54    58    59    2
    55    79    80    2
    56   139   138    2
    57   130   129    1
    58    57    56    1
    59    57    60    1
    60   138   137    1
    61    61    63    1
    62    61    62    1
    63    61    60    1
    64    17    18    2
    65    17    16    1
    66    80    81    1
    67    80    82    1
    68   128   127    2
    69    16    15    1
    70    16    19    1
    71   129   126    1
    72   137   136    1
    73   137   140    1
    74   127   136   am
    75   127   126    1
    76   192   193    1
    77   192   191    1
    78    45    46    1
    79   136   142    1
    80   193   187    1
    81   126   125    1
    82    48    47    2
    83    19    20    1
    84   140   141    1
    85   191   188    1
    86    22    20    1
    87   141   142    1
    88    51    53   ar
    89    51    50   ar
    90    53    55   ar
    91    47    46    1
    92   157   158    1
    93    46    49    1
    94    20    21    1
    95   187   188    1
    96   187   178   am
    97   125   119   am
    98   177   180    1
    99   177   176    1
   100   177   178    1
   101    49    50    1
   102    50    52   ar
   103   188   189    1
   104   180   181    1
   105   160   159    2
   106   178   179    2
   107    55    54   ar
   108   120   119    2
   109    10    11    2
   110    10     9    1
   111   119   118    1
   112   123   122    1
   113   158   159    1
   114   158   161    1
   115   189   190    2
   116   189   194   am
   117    13    12    1
   118    52    54   ar
   119     9     8    1
   120     9    12    1
   121   163   161    1
   122   181   183   ar
   123   181   182   ar
   124   111   110    2
   125   161   162    1
   126   108   109    1
   127   194   195    1
   128   183   185   ar
   129   110   117   am
   130   110   109    1
   131   118   117    1
   132   118   121    1
   133   122   121    1
   134   122   124    1
   135    12    14    1
   136   109   112    1
   137   182   184   ar
   138   195   196    1
   139    94    93    2
   140   185   186   ar
   141   164   165    1
   142   100    99    2
   143   112   113    1
   144   184   186   ar
   145    99    98    1
   146   167   166    2
   147    96    95    1
   148   196   198   am
   149   196   197    2
   150    93    92    1
   151   113   114    1
   152   198   199    1
   153    95    92    1
   154   204   202    1
   155    92    91    1
   156   165   166    1
   157   165   168    1
   158    98    97    1
   159    98   101    1
   160   202   199    1
   161   202   203    1
   162     1     2    1
   163   199   200    1
   164    86    85    2
   165   114   116   ar
   166   114   115   ar
   167    91    85   am
   168     4     3    2
   169   101   102    1
   170     7     5    1
   171    85    84    1
   172   171   170    1
   173   171   172    2
   174   200   201    2
   175     5     2    1
   176     5     6    1
   177     2     3    1
   178   211   210    1
   179   174   173    1
   180   170   173    1
   181   170   169    1
   182   102   103    1
   183   173   175    1
   184    84    87    1
   185    84    83    1
   186    87    88    1
   187   209   210    1
   188   209   206    1
   189   210   212    1
   190   104   103    1
   191   104   105    2
   192   106   105    1
   193   105   107    1
   194   206   205    1
   195   206   207    1
   196    88    90   ar
   197    88    89   ar
   198   217   218    1
   199   217   214    1
   200   218   219    1
   201   225   226    1
   202   225   224    1
   203   207   208    2
   204   219   213    1
   205   226   220    1
   206   214   213    1
   207   214   215    1
   208   224   221    1
   209   220   221    1
   210   215   216    2
   211   221   222    1
   212   222   223    2
