@<TRIPOS>MOLECULE
tmp/3bsdA01.pdb
 229 223 0 0 0
SMALL
GASTEIGER

@<TRIPOS>ATOM
      1  N         24.9500  123.0630  120.6510 N.3    35  SER35      -0.1203
      2  CA        24.6310  123.9520  119.5400 C.3    35  SER35       0.2005
      3  C         23.6910  125.0670  120.0110 C.2    35  SER35       0.2461
      4  O         22.6250  124.8100  120.5580 O.2    35  SER35      -0.2732
      5  CB        24.0190  123.1870  118.3660 C.3    35  SER35       0.2103
      6  OG        23.5390  124.0930  117.3900 O.3    35  SER35      -0.2182
      7  N         24.1220  126.3270  119.8650 N.am   36  PRO36      -0.2717
      8  CA        23.2480  127.4690  120.1870 C.3    36  PRO36       0.1535
      9  C         21.9940  127.6240  119.3100 C.2    36  PRO36       0.2598
     10  O         21.1110  128.4320  119.6420 O.2    36  PRO36      -0.2715
     11  CB        24.1850  128.6760  120.0830 C.3    36  PRO36       0.0310
     12  CG        25.3140  128.2270  119.2550 C.3    36  PRO36       0.0237
     13  CD        25.4840  126.7530  119.4900 C.3    36  PRO36       0.0939
     14  N         21.9250  126.8580  118.2180 N.am   37  LEU37      -0.1978
     15  CA        20.7020  126.6710  117.4400 C.3    37  LEU37       0.1596
     16  C         20.2990  125.1990  117.4120 C.2    37  LEU37       0.2287
     17  O         21.0910  124.3210  117.0150 O.2    37  LEU37      -0.2864
     18  CB        20.8730  127.1530  115.9910 C.3    37  LEU37       0.0297
     19  CG        20.9560  128.6740  115.7750 C.3    37  LEU37       0.0022
     20  CD1       21.2780  128.8980  114.3410 C.3    37  LEU37       0.0001
     21  CD2       19.6390  129.4310  116.1690 C.3    37  LEU37       0.0001
     22  N         18.8820  120.2810  115.6510 N.3    40  ALA40      -0.1231
     23  CA        20.0220  120.1210  114.7500 C.3    40  ALA40       0.1694
     24  C         20.1290  118.6550  114.2950 C.2    40  ALA40       0.2592
     25  O         20.5730  117.7870  115.0560 O.2    40  ALA40      -0.2718
     26  CB        21.2840  120.5460  115.4450 C.3    40  ALA40       0.0304
     27  N         19.6930  118.3990  113.0670 N.am   41  ASP41      -0.1960
     28  CA        19.6390  117.0650  112.4760 C.3    41  ASP41       0.1840
     29  C         20.5770  117.0220  111.2530 C.2    41  ASP41       0.2622
     30  O         20.5840  117.9320  110.4480 O.2    41  ASP41      -0.2715
     31  CB        18.1930  116.7510  112.0380 C.3    41  ASP41       0.1450
     32  CG        17.2050  116.6800  113.2090 C.2    41  ASP41       0.3671
     33  OD1       17.5920  116.3340  114.3550 O.co2  41  ASP41      -0.2456
     34  OD2       16.0090  116.9430  112.9730 O.co2  41  ASP41      -0.2456
     35  N         21.3920  115.9860  111.1300 N.am   42  CYS42      -0.1968
     36  CA        22.3450  115.9180  110.0190 C.3    42  CYS42       0.1712
     37  C         22.5830  114.4800  109.5700 C.2    42  CYS42       0.2296
     38  O         22.7090  113.5940  110.4190 O.2    42  CYS42      -0.2864
     39  CB        23.6650  116.5780  110.4280 C.3    42  CYS42       0.0983
     40  SG        24.9670  116.5050  109.2160 S.3    42  CYS42      -0.0798
     41  N         26.6220  115.9370  102.6160 N.3    64  PHE64      -0.1227
     42  CA        26.1880  116.4580  103.9070 C.3    64  PHE64       0.1736
     43  C         24.8400  117.1400  103.7420 C.2    64  PHE64       0.2595
     44  O         24.6750  118.0300  102.8890 O.2    64  PHE64      -0.2718
     45  CB        27.1720  117.4900  104.4050 C.3    64  PHE64       0.0547
     46  CG        28.5500  116.9570  104.6010 C.ar   64  PHE64      -0.0202
     47  CD1       29.4580  116.9370  103.5440 C.ar   64  PHE64      -0.0042
     48  CD2       28.9560  116.5020  105.8520 C.ar   64  PHE64      -0.0042
     49  CE1       30.7410  116.4460  103.7210 C.ar   64  PHE64      -0.0003
     50  CE2       30.2410  116.0120  106.0350 C.ar   64  PHE64      -0.0003
     51  CZ        31.1410  115.9950  104.9570 C.ar   64  PHE64      -0.0000
     52  N         23.8740  116.6780  104.5230 N.am   65  GLU65      -0.1965
     53  CA        22.5400  117.2490  104.5170 C.3    65  GLU65       0.1733
     54  C         22.1850  117.4920  105.9540 C.2    65  GLU65       0.2617
     55  O         22.3990  116.6320  106.7970 O.2    65  GLU65      -0.2715
     56  CB        21.5020  116.2880  103.9220 C.3    65  GLU65       0.0429
     57  CG        21.5970  116.0080  102.4360 C.3    65  GLU65       0.1163
     58  CD        20.2690  115.4720  101.8600 C.2    65  GLU65       0.3649
     59  OE1       19.4150  116.3050  101.4540 O.co2  65  GLU65      -0.2457
     60  OE2       20.0790  114.2270  101.8120 O.co2  65  GLU65      -0.2457
     61  N         21.6170  118.6500  106.2430 N.am   66  SER66      -0.1950
     62  CA        21.1750  118.9340  107.6110 C.3    66  SER66       0.1924
     63  C         20.0060  119.8840  107.6610 C.2    66  SER66       0.2314
     64  O         19.6780  120.5300  106.6550 O.2    66  SER66      -0.2863
     65  CB        22.3260  119.5090  108.4520 C.3    66  SER66       0.2116
     66  OG        22.8320  120.6700  107.8480 O.3    66  SER66      -0.2180
     67  N         18.8900  122.8700  110.5810 N.3    68  VAL68      -0.1245
     68  CA        19.2940  123.5310  111.7940 C.3    68  VAL68       0.1561
     69  C         18.2910  124.6140  112.1410 C.2    68  VAL68       0.2260
     70  O         18.1660  125.5930  111.3990 O.2    68  VAL68      -0.2867
     71  CB        20.6870  124.1360  111.7160 C.3    68  VAL68       0.0252
     72  CG1       21.0270  124.6780  113.0770 C.3    68  VAL68       0.0019
     73  CG2       21.7110  123.0710  111.3060 C.3    68  VAL68       0.0019
     74  N         16.4460  125.7190  109.0650 N.3    71  THR71      -0.1218
     75  CA        17.1870  125.9370  107.8370 C.3    71  THR71       0.1862
     76  C         17.7390  124.6550  107.2420 C.2    71  THR71       0.2287
     77  O         18.5500  123.9360  107.8570 O.2    71  THR71      -0.2866
     78  CB        18.3670  126.8800  108.0930 C.3    71  THR71       0.1770
     79  OG1       17.9270  128.0170  108.8540 O.3    71  THR71      -0.2211
     80  CG2       18.9840  127.3260  106.7670 C.3    71  THR71       0.0375
     81  N         20.1140  122.6880  104.9220 N.3    73  ASN73      -0.1225
     82  CA        21.4670  122.7660  104.3090 C.3    73  ASN73       0.1785
     83  C         21.8830  121.5290  103.5760 C.2    73  ASN73       0.2597
     84  O         21.5280  120.4190  103.9670 O.2    73  ASN73      -0.2718
     85  CB        22.5360  123.0500  105.3550 C.3    73  ASN73       0.1169
     86  CG        22.0960  124.0550  106.3250 C.2    73  ASN73       0.2627
     87  OD1       21.6980  125.1490  105.9290 O.2    73  ASN73      -0.2716
     88  ND2       22.1060  123.7000  107.6100 N.am   73  ASN73      -0.0877
     89  N         22.6560  121.7350  102.5110 N.am   74  LYS74      -0.1966
     90  CA        23.1930  120.6540  101.7190 C.3    74  LYS74       0.1728
     91  C         24.5530  121.0260  101.1660 C.2    74  LYS74       0.2616
     92  O         24.7960  122.1740  100.7930 O.2    74  LYS74      -0.2715
     93  CB        22.2420  120.2840  100.5860 C.3    74  LYS74       0.0311
     94  CG        22.7370  119.1710   99.6530 C.3    74  LYS74       0.0038
     95  CD        21.5900  118.7010   98.7670 C.3    74  LYS74       0.0206
     96  CE        22.0490  117.7200   97.6910 C.3    74  LYS74       0.1093
     97  NZ        22.5360  116.4800   98.3360 N.3    74  LYS74      -0.1314
     98  N         25.4370  120.0350  101.1410 N.am   75  LEU75      -0.1977
     99  CA        26.7710  120.1770  100.5810 C.3    75  LEU75       0.1596
    100  C         27.2010  118.8350  100.0440 C.2    75  LEU75       0.2287
    101  O         27.1660  117.8250  100.7330 O.2    75  LEU75      -0.2864
    102  CB        27.8040  120.6900  101.6160 C.3    75  LEU75       0.0297
    103  CG        29.2120  120.8800  101.0000 C.3    75  LEU75       0.0022
    104  CD1       29.9160  122.1030  101.5200 C.3    75  LEU75       0.0001
    105  CD2       30.1350  119.6230  101.1280 C.3    75  LEU75       0.0001
    106  N         30.3440  116.9920   97.5380 N.3    77  ILE77      -0.1245
    107  CA        31.6730  117.1250   96.9710 C.3    77  ILE77       0.1561
    108  C         32.0640  115.7600   96.4500 C.2    77  ILE77       0.2260
    109  O         32.0190  114.7740   97.1830 O.2    77  ILE77      -0.2867
    110  CB        32.7240  117.6400   98.0250 C.3    77  ILE77       0.0252
    111  CG1       34.1260  117.7630   97.4220 C.3    77  ILE77       0.0019
    112  CG2       32.7410  116.7770   99.3140 C.3    77  ILE77       0.0019
    113  CD1       35.0150  118.6440   98.2700 C.3    77  ILE77       0.0001
    114  N         27.0760  123.7510   97.2330 N.3    97  VAL97      -0.1231
    115  CA        26.5240  124.0240   98.5540 C.3    97  VAL97       0.1692
    116  C         25.1220  124.6430   98.3620 C.2    97  VAL97       0.2593
    117  O         24.8470  125.2320   97.3160 O.2    97  VAL97      -0.2718
    118  CB        27.4730  124.9170   99.3840 C.3    97  VAL97       0.0266
    119  CG1       27.4980  126.3400   98.8640 C.3    97  VAL97       0.0020
    120  CG2       27.0760  124.9090  100.8420 C.3    97  VAL97       0.0020
    121  N         24.2340  124.4440   99.3370 N.am   98  SER98      -0.1938
    122  CA        22.9090  125.0700   99.3450 C.3    98  SER98       0.2055
    123  C         22.4100  125.3220  100.7900 C.2    98  SER98       0.2642
    124  O         22.6600  124.5190  101.7130 O.2    98  SER98      -0.2714
    125  CB        21.8930  124.2470   98.5530 C.3    98  SER98       0.2130
    126  OG        21.1010  123.4400   99.4040 O.3    98  SER98      -0.2179
    127  N         21.7510  126.4620  100.9740 N.am   99  VAL99      -0.1977
    128  CA        21.1400  126.8360  102.2460 C.3    99  VAL99       0.1596
    129  C         19.8400  127.5670  101.9360 C.2    99  VAL99       0.2287
    130  O         19.8720  128.6850  101.4120 O.2    99  VAL99      -0.2864
    131  CB        22.0220  127.8220  103.0750 C.3    99  VAL99       0.0276
    132  CG1       21.4230  128.0160  104.4040 C.3    99  VAL99       0.0022
    133  CG2       23.4510  127.3480  103.2050 C.3    99  VAL99       0.0022
    134  N         30.9330  124.6550   92.5760 N.3   106  PHE106     -0.1241
    135  CA        32.3700  124.9260   92.5430 C.3   106  PHE106      0.1605
    136  C         33.1260  123.7720   91.8980 C.2   106  PHE106      0.2264
    137  O         32.6360  122.6460   91.9360 O.2   106  PHE106     -0.2867
    138  CB        32.9240  125.2120   93.9430 C.3   106  PHE106      0.0534
    139  CG        32.7120  124.0920   94.9380 C.ar  106  PHE106     -0.0203
    140  CD1       33.7190  123.1360   95.1670 C.ar  106  PHE106     -0.0042
    141  CD2       31.5410  124.0230   95.7110 C.ar  106  PHE106     -0.0042
    142  CE1       33.5470  122.1030   96.1220 C.ar  106  PHE106     -0.0003
    143  CE2       31.3600  122.9830   96.6540 C.ar  106  PHE106     -0.0003
    144  CZ        32.3710  122.0290   96.8610 C.ar  106  PHE106     -0.0000
    145  N         37.5600  122.5210   91.6090 N.3   108  PHE108     -0.1241
    146  CA        38.8870  122.7860   92.1970 C.3   108  PHE108      0.1605
    147  C         40.0160  121.8400   91.6950 C.2   108  PHE108      0.2264
    148  O         39.7360  120.7120   91.2030 O.2   108  PHE108     -0.2867
    149  CB        38.8200  122.7840   93.7120 C.3   108  PHE108      0.0534
    150  CG        38.7090  121.3930   94.3220 C.ar  108  PHE108     -0.0203
    151  CD1       39.8700  120.6770   94.7470 C.ar  108  PHE108     -0.0042
    152  CD2       37.4520  120.7960   94.5170 C.ar  108  PHE108     -0.0042
    153  CE1       39.7800  119.3740   95.3390 C.ar  108  PHE108     -0.0003
    154  CE2       37.3470  119.4980   95.1030 C.ar  108  PHE108     -0.0003
    155  CZ        38.5100  118.7860   95.5130 C.ar  108  PHE108     -0.0000
    156  N         45.9750  125.5680   96.3040 N.3   141  ILE141     -0.1245
    157  CA        44.5730  125.4230   95.8810 C.3   141  ILE141      0.1561
    158  C         44.1580  126.3530   94.7370 C.2   141  ILE141      0.2260
    159  O         44.1940  127.5760   94.8970 O.2   141  ILE141     -0.2867
    160  CB        43.5830  125.7060   97.0890 C.3   141  ILE141      0.0252
    161  CG1       43.7150  124.6550   98.1970 C.3   141  ILE141      0.0019
    162  CG2       42.0990  125.8050   96.6290 C.3   141  ILE141      0.0019
    163  CD1       43.3760  125.1800   99.5470 C.3   141  ILE141      0.0001
    164  N         40.6930  127.1780   93.0420 N.3   143  MET143     -0.1245
    165  CA        39.2310  126.9670   93.0670 C.3   143  MET143      0.1570
    166  C         38.4410  127.9870   92.2530 C.2   143  MET143      0.2261
    167  O         38.8020  129.1640   92.1920 O.2   143  MET143     -0.2867
    168  CB        38.6810  126.8690   94.5030 C.3   143  MET143      0.0387
    169  CG        38.4860  128.1910   95.2200 C.3   143  MET143      0.0595
    170  SD        38.3510  127.9530   96.9930 S.3   143  MET143     -0.1393
    171  CE        37.7480  129.5730   97.4940 C.3   143  MET143      0.0692
    172  N         37.3250  134.5440  110.3470 N.3   176  PHE176     -0.1227
    173  CA        36.1330  134.2750  109.5880 C.3   176  PHE176      0.1736
    174  C         36.0120  132.7970  109.2750 C.2   176  PHE176      0.2595
    175  O         34.9420  132.2430  109.3540 O.2   176  PHE176     -0.2718
    176  CB        36.1590  135.0600  108.2850 C.3   176  PHE176      0.0547
    177  CG        35.1570  134.5890  107.2940 C.ar  176  PHE176     -0.0202
    178  CD1       35.5240  133.7000  106.2890 C.ar  176  PHE176     -0.0042
    179  CD2       33.8350  135.0050  107.3790 C.ar  176  PHE176     -0.0042
    180  CE1       34.5900  133.2550  105.3600 C.ar  176  PHE176     -0.0003
    181  CE2       32.9040  134.5640  106.4710 C.ar  176  PHE176     -0.0003
    182  CZ        33.2840  133.6860  105.4520 C.ar  176  PHE176     -0.0000
    183  N         37.1350  132.1910  108.9020 N.am  177  TRP177     -0.1976
    184  CA        37.2470  130.8240  108.4180 C.3   177  TRP177      0.1640
    185  C         36.8290  129.8280  109.4920 C.2   177  TRP177      0.2290
    186  O         35.9830  128.9940  109.2460 O.2   177  TRP177     -0.2864
    187  CB        38.7220  130.6220  108.0340 C.3   177  TRP177      0.0576
    188  CG        39.1740  129.3150  107.4340 C.ar  177  TRP177      0.0006
    189  CD1       38.4690  128.1490  107.3080 C.ar  177  TRP177      0.0946
    190  CD2       40.4820  129.0480  106.9290 C.ar  177  TRP177      0.0152
    191  NE1       39.2470  127.1870  106.7400 N.ar  177  TRP177     -0.2442
    192  CE2       40.4900  127.7100  106.4890 C.ar  177  TRP177      0.0810
    193  CE3       41.6490  129.8250  106.7840 C.ar  177  TRP177      0.0012
    194  CZ2       41.6320  127.1130  105.9250 C.ar  177  TRP177      0.0191
    195  CZ3       42.7740  129.2440  106.2400 C.ar  177  TRP177      0.0001
    196  CH2       42.7630  127.8920  105.8150 C.ar  177  TRP177      0.0015
    197  N         34.8170  129.5530  112.1090 N.3   179  ILE179     -0.1245
    198  CA        33.5970  130.1220  112.7060 C.3   179  ILE179      0.1561
    199  C         33.2770  129.5160  114.0700 C.2   179  ILE179      0.2260
    200  O         33.4470  128.3090  114.2780 O.2   179  ILE179     -0.2867
    201  CB        32.3650  130.0240  111.7070 C.3   179  ILE179      0.0252
    202  CG1       31.1850  130.8760  112.1680 C.3   179  ILE179      0.0019
    203  CG2       31.9190  128.5810  111.5020 C.3   179  ILE179      0.0019
    204  CD1       30.0860  131.0610  111.1130 C.3   179  ILE179      0.0001
    205  N         45.3720  130.2030   96.0070 N.3   216  TRP216     -0.1241
    206  CA        45.8100  130.4600   97.3730 C.3   216  TRP216      0.1605
    207  C         46.4450  129.2510   98.0580 C.2   216  TRP216      0.2264
    208  O         46.1510  128.0860   97.7400 O.2   216  TRP216     -0.2867
    209  CB        44.6690  131.0450   98.2290 C.3   216  TRP216      0.0550
    210  CG        43.5240  130.0870   98.5110 C.ar  216  TRP216      0.0003
    211  CD1       42.6400  129.5600   97.5950 C.ar  216  TRP216      0.0946
    212  CD2       43.1370  129.5560   99.7920 C.ar  216  TRP216      0.0152
    213  NE1       41.7410  128.7360   98.2270 N.ar  216  TRP216     -0.2442
    214  CE2       42.0140  128.7190   99.5740 C.ar  216  TRP216      0.0810
    215  CE3       43.6230  129.7120  101.1070 C.ar  216  TRP216      0.0012
    216  CZ2       41.3740  128.0310  100.6240 C.ar  216  TRP216      0.0191
    217  CZ3       42.9910  129.0330  102.1380 C.ar  216  TRP216      0.0001
    218  CH2       41.8720  128.2070  101.8880 C.ar  216  TRP216      0.0015
    219  N         22.7740  111.9670  112.7210 N.3   251  PHE251     -0.1241
    220  CA        22.2900  112.2680  114.0480 C.3   251  PHE251      0.1605
    221  C         21.0360  113.1220  114.0120 C.2   251  PHE251      0.2264
    222  O         20.8330  113.9240  113.0900 O.2   251  PHE251     -0.2867
    223  CB        23.3950  112.8720  114.9360 C.3   251  PHE251      0.0534
    224  CG        23.8190  114.2650  114.5460 C.ar  251  PHE251     -0.0203
    225  CD1       25.0200  114.4740  113.9120 C.ar  251  PHE251     -0.0042
    226  CD2       23.0070  115.3820  114.8440 C.ar  251  PHE251     -0.0042
    227  CE1       25.4240  115.7570  113.5510 C.ar  251  PHE251     -0.0003
    228  CE2       23.3980  116.6970  114.4930 C.ar  251  PHE251     -0.0003
    229  CZ        24.6020  116.8910  113.8570 C.ar  251  PHE251     -0.0000
@<TRIPOS>BOND
     1   148   147    2
     2   145   146    1
     3   147   146    1
     4   136   137    2
     5   136   135    1
     6   167   166    2
     7   146   149    1
     8   166   165    1
     9   135   134    1
    10   135   138    1
    11   164   165    1
    12   165   168    1
    13   149   150    1
    14   138   139    1
    15   150   152   ar
    16   150   151   ar
    17   168   169    1
    18   152   154   ar
    19   158   159    2
    20   158   157    1
    21   151   153   ar
    22   139   140   ar
    23   139   141   ar
    24   154   155   ar
    25   140   142   ar
    26   169   170    1
    27   153   155   ar
    28   141   143   ar
    29   157   156    1
    30   157   160    1
    31   205   206    1
    32   142   144   ar
    33   108   107    1
    34   108   109    2
    35   162   160    1
    36   143   144   ar
    37   107   106    1
    38   107   110    1
    39   170   171    1
    40   160   161    1
    41   114   115    1
    42   117   116    2
    43   206   207    1
    44   206   209    1
    45   111   110    1
    46   111   113    1
    47   211   213   ar
    48   211   210   ar
    49    96    97    1
    50    96    95    1
    51   208   207    2
    52   110   112    1
    53   161   163    1
    54   213   214   ar
    55   209   210    1
    56   116   115    1
    57   116   121   am
    58   210   212   ar
    59   125   122    1
    60   125   126    1
    61   115   118    1
    62    95    94    1
    63   119   118    1
    64   121   122    1
    65   122   123    1
    66   118   120    1
    67   214   212   ar
    68   214   216   ar
    69    94    93    1
    70   212   215   ar
    71   100    99    1
    72   100   101    2
    73    99    98    1
    74    99   102    1
    75    93    90    1
    76   216   218   ar
    77   123   127   am
    78   123   124    2
    79    92    91    2
    80   127   128    1
    81   103   105    1
    82   103   104    1
    83   103   102    1
    84   215   217   ar
    85    98    91   am
    86    91    90    1
    87   130   129    2
    88    59    58   ar
    89    90    89    1
    90    60    58   ar
    91    58    57    1
    92   218   217   ar
    93   129   128    1
    94   128   131    1
    95    57    56    1
    96    89    83   am
    97    41    42    1
    98    44    43    2
    99   131   133    1
   100   131   132    1
   101    47    49   ar
   102    47    46   ar
   103    83    84    2
   104    83    82    1
   105    49    51   ar
   106    43    42    1
   107    43    52   am
   108    42    45    1
   109    56    53    1
   110    82    81    1
   111    82    85    1
   112    45    46    1
   113    53    52    1
   114    53    54    1
   115    46    48   ar
   116    51    50   ar
   117    85    86    1
   118   180   182   ar
   119   180   178   ar
   120   182   181   ar
   121   196   194   ar
   122   196   195   ar
   123    48    50   ar
   124   194   192   ar
   125    87    86    2
   126    54    61   am
   127    54    55    2
   128   195   193   ar
   129    61    62    1
   130   178   177   ar
   131    86    88   am
   132   181   179   ar
   133   192   191   ar
   134   192   190   ar
   135    64    63    2
   136   191   189   ar
   137    80    78    1
   138   193   190   ar
   139   190   188   ar
   140    76    75    1
   141    76    77    2
   142   177   179   ar
   143   177   176    1
   144   189   188   ar
   145   188   187    1
   146    62    63    1
   147    62    65    1
   148    75    78    1
   149    75    74    1
   150    66    65    1
   151   187   184    1
   152    78    79    1
   153   176   173    1
   154   184   183    1
   155   184   185    1
   156   183   174   am
   157    40    39    1
   158   186   185    2
   159   174   175    2
   160   174   173    1
   161    37    36    1
   162    37    38    2
   163   173   172    1
   164    36    39    1
   165    36    35    1
   166    30    29    2
   167    67    68    1
   168   204   202    1
   169    35    29   am
   170    29    28    1
   171    73    71    1
   172    70    69    2
   173   203   201    1
   174   201   202    1
   175   201   198    1
   176    71    68    1
   177    71    72    1
   178    68    69    1
   179    31    28    1
   180    31    32    1
   181   197   198    1
   182    28    27    1
   183   198   199    1
   184   219   220    1
   185    34    32   ar
   186    27    24   am
   187   222   221    2
   188    32    33   ar
   189   227   229   ar
   190   227   225   ar
   191   229   228   ar
   192   225   224   ar
   193   221   220    1
   194   220   223    1
   195   199   200    2
   196    24    23    1
   197    24    25    2
   198    20    19    1
   199   228   226   ar
   200   224   226   ar
   201   224   223    1
   202    23    26    1
   203    23    22    1
   204    19    18    1
   205    19    21    1
   206    18    15    1
   207    17    16    2
   208     6     5    1
   209    16    15    1
   210    15    14    1
   211    14     9   am
   212     5     2    1
   213    12    13    1
   214    12    11    1
   215     9    10    2
   216     9     8    1
   217    13     7    1
   218     2     3    1
   219     2     1    1
   220     7     3   am
   221     7     8    1
   222     3     4    2
   223    11     8    1
