@<TRIPOS>MOLECULE
tmp/3bsfB00.pdb
 89 83 0 0 0
SMALL
GASTEIGER

@<TRIPOS>ATOM
      1  N        -40.2270   34.5260    0.3850 N.3    93  THR93      -0.1203
      2  CA       -40.6970   34.7180   -0.9770 C.3    93  THR93       0.1994
      3  C        -40.0340   33.6900   -1.8990 C.2    93  THR93       0.2618
      4  O        -39.0820   33.0270   -1.4960 O.2    93  THR93      -0.2717
      5  CB       -40.3620   36.1460   -1.4680 C.3    93  THR93       0.1784
      6  OG1      -38.9490   36.3830   -1.3250 O.3    93  THR93      -0.2211
      7  CG2      -41.1590   37.1810   -0.6720 C.3    93  THR93       0.0376
      8  N        -40.5350   33.5610   -3.1280 N.am   94  ALA94      -0.1965
      9  CA       -39.9760   32.5940   -4.0800 C.3    94  ALA94       0.1728
     10  C        -40.3650   32.8150   -5.5490 C.2    94  ALA94       0.2616
     11  O        -41.1170   33.7430   -5.8910 O.2    94  ALA94      -0.2715
     12  CB       -40.3740   31.1850   -3.6610 C.3    94  ALA94       0.0334
     13  N        -39.8270   31.9550   -6.4100 N.am   95  GLY95      -0.1955
     14  CA       -40.1400   32.0170   -7.8260 C.3    95  GLY95       0.1869
     15  C        -41.2970   31.0700   -8.1370 C.2    95  GLY95       0.2309
     16  O        -41.3830   29.9680   -7.5800 O.2    95  GLY95      -0.2863
     17  N        -30.0880   32.3750   -8.0140 N.3   158  MET158     -0.1245
     18  CA       -31.3540   33.0620   -8.1680 C.3   158  MET158      0.1570
     19  C        -31.7690   32.9970   -9.6370 C.2   158  MET158      0.2261
     20  O        -32.9620   33.0320   -9.9600 O.2   158  MET158     -0.2867
     21  CB       -31.2390   34.5120   -7.7120 C.3   158  MET158      0.0387
     22  CG       -32.5810   35.2090   -7.6770 C.3   158  MET158      0.0595
     23  SD       -32.5550   36.8780   -7.0070 S.3   158  MET158     -0.1393
     24  CE       -32.0740   37.8630   -8.5090 C.3   158  MET158      0.0692
     25  N        -40.0140   27.9490   -6.5650 N.3   176  LYS176     -0.1231
     26  CA       -38.5490   27.8790   -6.6370 C.3   176  LYS176      0.1693
     27  C        -37.8970   28.8180   -5.6270 C.2   176  LYS176      0.2592
     28  O        -38.2710   29.9870   -5.5460 O.2   176  LYS176     -0.2718
     29  CB       -38.1000   28.2460   -8.0680 C.3   176  LYS176      0.0285
     30  CG       -36.5940   28.3880   -8.2990 C.3   176  LYS176      0.0035
     31  CD       -36.3010   28.8100   -9.7290 C.3   176  LYS176      0.0206
     32  CE       -34.8110   28.7470  -10.0560 C.3   176  LYS176      0.1093
     33  NZ       -34.0170   29.7020   -9.2530 N.3   176  LYS176     -0.1314
     34  N        -36.9230   28.3140   -4.8620 N.am  177  ASP177     -0.1960
     35  CA       -36.2410   29.1450   -3.8650 C.3   177  ASP177      0.1840
     36  C        -34.7920   28.7040   -3.6260 C.2   177  ASP177      0.2621
     37  O        -34.2880   27.7820   -4.2930 O.2   177  ASP177     -0.2715
     38  CB       -37.0160   29.1390   -2.5320 C.3   177  ASP177      0.1450
     39  CG       -36.7610   27.8810   -1.7020 C.2   177  ASP177      0.3671
     40  OD1      -36.6470   26.7830   -2.3060 O.co2 177  ASP177     -0.2456
     41  OD2      -36.6850   27.9940   -0.4510 O.co2 177  ASP177     -0.2456
     42  N        -34.1440   29.3560   -2.6510 N.am  178  MET178     -0.1977
     43  CA       -32.7440   29.0980   -2.3310 C.3   178  MET178      0.1605
     44  C        -32.3960   28.4530   -0.9870 C.2   178  MET178      0.2287
     45  O        -31.2130   28.2990   -0.6730 O.2   178  MET178     -0.2864
     46  CB       -31.9640   30.4030   -2.4390 C.3   178  MET178      0.0413
     47  CG       -32.0650   31.1010   -3.7850 C.3   178  MET178      0.0598
     48  SD       -31.1210   32.6630   -3.8030 S.3   178  MET178     -0.1393
     49  CE       -29.4200   32.0220   -3.8810 C.3   178  MET178      0.0692
     50  N        -43.1170   35.8180   -5.7000 N.3   201  THR201     -0.1203
     51  CA       -42.8610   37.2070   -6.0440 C.3   201  THR201      0.1994
     52  C        -42.4290   37.3780   -7.4870 C.2   201  THR201      0.2617
     53  O        -42.4780   38.4750   -8.0310 O.2   201  THR201     -0.2717
     54  CB       -41.7700   37.7920   -5.1570 C.3   201  THR201      0.1784
     55  OG1      -40.6170   36.9500   -5.2230 O.3   201  THR201     -0.2211
     56  CG2      -42.2410   37.8840   -3.7220 C.3   201  THR201      0.0376
     57  N        -42.0200   36.2870   -8.1140 N.am  202  ASP202     -0.1973
     58  CA       -41.5480   36.3510   -9.4830 C.3   202  ASP202      0.1709
     59  C        -41.9780   35.1200  -10.2750 C.2   202  ASP202      0.2293
     60  O        -41.8810   33.9940   -9.7920 O.2   202  ASP202     -0.2864
     61  CB       -40.0180   36.4750   -9.4570 C.3   202  ASP202      0.1436
     62  CG       -39.3790   36.2400  -10.8140 C.2   202  ASP202      0.3671
     63  OD1      -39.7960   36.8990  -11.7980 O.co2 202  ASP202     -0.2456
     64  OD2      -38.4500   35.3970  -10.8960 O.co2 202  ASP202     -0.2456
     65  N        -41.0170   32.8030  -12.8820 N.3   204  VAL204     -0.1245
     66  CA       -39.8110   32.3510  -13.5790 C.3   204  VAL204      0.1561
     67  C        -39.9560   32.0030  -15.0650 C.2   204  VAL204      0.2260
     68  O        -39.1020   32.3640  -15.8730 O.2   204  VAL204     -0.2867
     69  CB       -39.1820   31.1430  -12.8300 C.3   204  VAL204      0.0252
     70  CG1      -38.0580   30.5220  -13.6550 C.3   204  VAL204      0.0019
     71  CG2      -38.6340   31.6020  -11.4870 C.3   204  VAL204      0.0019
     72  N        -36.4060   38.0480  -13.8980 N.3   210  THR210     -0.1218
     73  CA       -36.4110   37.4540  -12.5500 C.3   210  THR210      0.1862
     74  C        -35.8730   38.3740  -11.4440 C.2   210  THR210      0.2287
     75  O        -36.0070   38.0740  -10.2560 O.2   210  THR210     -0.2866
     76  CB       -35.5940   36.1120  -12.4920 C.3   210  THR210      0.1770
     77  OG1      -34.2170   36.3550  -12.8210 O.3   210  THR210     -0.2211
     78  CG2      -36.1820   35.0760  -13.4480 C.3   210  THR210      0.0375
     79  N        -39.1180   40.7850   -9.0440 N.3   214  PHE214     -0.1241
     80  CA       -38.8870   40.3720   -7.6610 C.3   214  PHE214      0.1605
     81  C        -38.8750   41.5780   -6.7330 C.2   214  PHE214      0.2264
     82  O        -39.4810   41.5440   -5.6620 O.2   214  PHE214     -0.2867
     83  CB       -37.5440   39.6230   -7.5480 C.3   214  PHE214      0.0534
     84  CG       -37.0170   39.4960   -6.1260 C.ar  214  PHE214     -0.0203
     85  CD1      -37.7460   38.8190   -5.1460 C.ar  214  PHE214     -0.0042
     86  CD2      -35.7820   40.0480   -5.7750 C.ar  214  PHE214     -0.0042
     87  CE1      -37.2540   38.6920   -3.8390 C.ar  214  PHE214     -0.0003
     88  CE2      -35.2820   39.9260   -4.4700 C.ar  214  PHE214     -0.0003
     89  CZ       -36.0210   39.2470   -3.5040 C.ar  214  PHE214     -0.0000
@<TRIPOS>BOND
     1    68    67    2
     2    67    66    1
     3    72    73    1
     4    70    69    1
     5    66    65    1
     6    66    69    1
     7    78    76    1
     8    69    71    1
     9    77    76    1
    10    73    76    1
    11    73    74    1
    12    63    62   ar
    13    74    75    2
    14    64    62   ar
    15    62    61    1
    16    59    60    2
    17    59    58    1
    18    32    31    1
    19    32    33    1
    20    20    19    2
    21    31    30    1
    22    19    18    1
    23    58    61    1
    24    58    57    1
    25    79    80    1
    26    24    23    1
    27    30    29    1
    28    18    17    1
    29    18    21    1
    30    15    14    1
    31    15    16    2
    32    57    52   am
    33    29    26    1
    34    53    52    2
    35    14    13    1
    36    21    22    1
    37    22    23    1
    38    80    83    1
    39    80    81    1
    40    83    84    1
    41    52    51    1
    42    81    82    2
    43    26    25    1
    44    26    27    1
    45    13    10   am
    46    84    86   ar
    47    84    85   ar
    48    51    50    1
    49    51    54    1
    50    11    10    2
    51    86    88   ar
    52    27    28    2
    53    27    34   am
    54    10     9    1
    55    55    54    1
    56    54    56    1
    57    85    87   ar
    58    34    35    1
    59    88    89   ar
    60    37    36    2
    61     9    12    1
    62     9     8    1
    63    49    48    1
    64    35    36    1
    65    35    38    1
    66    87    89   ar
    67    48    47    1
    68    47    46    1
    69    36    42   am
    70     8     3   am
    71    42    43    1
    72    38    39    1
    73    46    43    1
    74    43    44    1
    75    40    39   ar
    76     3     4    2
    77     3     2    1
    78    39    41   ar
    79     5     6    1
    80     5     2    1
    81     5     7    1
    82    44    45    2
    83     2     1    1
