@<TRIPOS>MOLECULE
tmp/3bshA00.pdb
 135 133 0 0 0
SMALL
GASTEIGER

@<TRIPOS>ATOM
      1  N        -37.8150  -32.4130   17.6490 N.3    10  TRP10      -0.1241
      2  CA       -37.9320  -32.8560   19.0280 C.3    10  TRP10       0.1605
      3  C        -37.6470  -34.3530   19.1770 C.2    10  TRP10       0.2264
      4  O        -36.7000  -34.7500   19.8720 O.2    10  TRP10      -0.2867
      5  CB       -39.3410  -32.5450   19.5380 C.3    10  TRP10       0.0550
      6  CG       -39.4330  -32.3030   21.0060 C.ar   10  TRP10       0.0003
      7  CD1      -40.4720  -32.6330   21.8240 C.ar   10  TRP10       0.0946
      8  CD2      -38.4900  -31.6010   21.8230 C.ar   10  TRP10       0.0152
      9  NE1      -40.2400  -32.1750   23.0980 N.ar   10  TRP10      -0.2442
     10  CE2      -39.0300  -31.5370   23.1240 C.ar   10  TRP10       0.0810
     11  CE3      -37.2410  -31.0110   21.5790 C.ar   10  TRP10       0.0012
     12  CZ2      -38.3700  -30.9070   24.1760 C.ar   10  TRP10       0.0191
     13  CZ3      -36.5840  -30.3790   22.6280 C.ar   10  TRP10       0.0001
     14  CH2      -37.1490  -30.3310   23.9080 C.ar   10  TRP10       0.0015
     15  N        -30.9680  -30.0030   25.6990 N.3    52  TYR52      -0.1241
     16  CA       -30.9680  -28.6050   26.1080 C.3    52  TYR52       0.1605
     17  C        -30.7820  -28.4120   27.6160 C.2    52  TYR52       0.2264
     18  O        -31.0960  -27.3580   28.1600 O.2    52  TYR52      -0.2867
     19  CB       -32.2460  -27.9340   25.6050 C.3    52  TYR52       0.0534
     20  CG       -32.2690  -27.8190   24.0880 C.ar   52  TYR52      -0.0201
     21  CD1      -31.4990  -26.8520   23.4350 C.ar   52  TYR52      -0.0009
     22  CD2      -32.9780  -28.7340   23.3020 C.ar   52  TYR52      -0.0009
     23  CE1      -31.4230  -26.8010   22.0500 C.ar   52  TYR52       0.0417
     24  CE2      -32.9080  -28.6900   21.9130 C.ar   52  TYR52       0.0417
     25  CZ       -32.1220  -27.7220   21.2930 C.ar   52  TYR52       0.1957
     26  OH       -31.9980  -27.6880   19.9170 O.3    52  TYR52      -0.2866
     27  N        -27.2260  -21.6290   30.5090 N.3    93  HIS93      -0.1241
     28  CA       -27.3460  -22.4060   31.7410 C.3    93  HIS93       0.1621
     29  C        -26.6940  -23.7590   31.5770 C.2    93  HIS93       0.2264
     30  O        -26.3700  -24.1630   30.4780 O.2    93  HIS93      -0.2867
     31  CB       -28.8080  -22.6130   32.0930 C.3    93  HIS93       0.0745
     32  CG       -29.5870  -23.2600   31.0010 C.ar   93  HIS93       0.0817
     33  ND1      -30.0660  -22.5570   29.9200 N.ar   93  HIS93      -0.2268
     34  CD2      -29.9050  -24.5570   30.7810 C.ar   93  HIS93       0.1154
     35  CE1      -30.6450  -23.3940   29.0790 C.ar   93  HIS93       0.1986
     36  NE2      -30.5600  -24.6140   29.5770 N.ar   93  HIS93      -0.2212
     37  N        -33.1310  -19.1970   33.6910 N.3   144  PHE144     -0.1241
     38  CA       -33.8020  -20.4220   33.2950 C.3   144  PHE144      0.1605
     39  C        -33.9730  -21.1700   34.6170 C.2   144  PHE144      0.2264
     40  O        -32.9980  -21.6130   35.2380 O.2   144  PHE144     -0.2867
     41  CB       -32.9320  -21.2040   32.3000 C.3   144  PHE144      0.0534
     42  CG       -33.5360  -22.5060   31.8300 C.ar  144  PHE144     -0.0203
     43  CD1      -34.7580  -22.5340   31.1770 C.ar  144  PHE144     -0.0042
     44  CD2      -32.8600  -23.7100   32.0290 C.ar  144  PHE144     -0.0042
     45  CE1      -35.3010  -23.7500   30.7280 C.ar  144  PHE144     -0.0003
     46  CE2      -33.3950  -24.9260   31.5820 C.ar  144  PHE144     -0.0003
     47  CZ       -34.6140  -24.9450   30.9340 C.ar  144  PHE144     -0.0000
     48  N        -25.2540  -21.7550   16.5420 N.3   178  ARG178     -0.1245
     49  CA       -26.6710  -21.4510   16.6890 C.3   178  ARG178      0.1563
     50  C        -26.7690  -21.3520   18.1910 C.2   178  ARG178      0.2260
     51  O        -26.7340  -22.3590   18.8950 O.2   178  ARG178     -0.2867
     52  CB       -27.5660  -22.5850   16.1780 C.3   178  ARG178      0.0307
     53  CG       -29.0850  -22.3760   16.3830 C.3   178  ARG178      0.0489
     54  CD       -29.5700  -22.7700   17.7950 C.3   178  ARG178      0.2205
     55  NE       -31.0220  -22.6190   17.9580 N.pl3 178  ARG178     -0.0865
     56  CZ       -31.7040  -22.9470   19.0570 C.cat 178  ARG178      0.5346
     57  NH1      -31.0750  -23.4460   20.1070 N.pl3 178  ARG178      0.1354
     58  NH2      -33.0200  -22.7930   19.1050 N.pl3 178  ARG178      0.1354
     59  N        -28.4040  -21.0790   21.5690 N.3   180  ASP180     -0.1225
     60  CA       -29.6690  -21.4170   22.2030 C.3   180  ASP180      0.1805
     61  C        -29.9980  -20.4550   23.3200 C.2   180  ASP180      0.2597
     62  O        -29.1370  -20.0950   24.1150 O.2   180  ASP180     -0.2718
     63  CB       -29.6180  -22.8420   22.7770 C.3   180  ASP180      0.1424
     64  CG       -30.6990  -23.1000   23.8300 C.2   180  ASP180      0.3668
     65  OD1      -31.8760  -23.3220   23.4680 O.co2 180  ASP180     -0.2456
     66  OD2      -30.3660  -23.0740   25.0330 O.co2 180  ASP180     -0.2456
     67  N        -31.2520  -20.0400   23.3710 N.am  181  PHE181     -0.1976
     68  CA       -31.7180  -19.1630   24.4240 C.3   181  PHE181      0.1639
     69  C        -30.8020  -17.9890   24.6250 C.2   181  PHE181      0.2290
     70  O        -30.2060  -17.8290   25.7000 O.2   181  PHE181     -0.2864
     71  CB       -31.8190  -19.9360   25.7400 C.3   181  PHE181      0.0560
     72  CG       -32.4910  -19.1720   26.8380 C.ar  181  PHE181     -0.0200
     73  CD1      -33.7700  -18.6720   26.6690 C.ar  181  PHE181     -0.0042
     74  CD2      -31.8600  -18.9750   28.0460 C.ar  181  PHE181     -0.0042
     75  CE1      -34.4070  -17.9960   27.6790 C.ar  181  PHE181     -0.0003
     76  CE2      -32.5040  -18.2930   29.0690 C.ar  181  PHE181     -0.0003
     77  CZ       -33.7790  -17.8060   28.8790 C.ar  181  PHE181     -0.0000
     78  N        -30.9180  -17.1510   19.1110 N.3   205  GLU205     -0.1245
     79  CA       -32.3310  -17.3130   19.3910 C.3   205  GLU205      0.1567
     80  C        -32.8150  -16.3240   20.4530 C.2   205  GLU205      0.2260
     81  O        -32.8260  -16.5910   21.6610 O.2   205  GLU205     -0.2867
     82  CB       -32.6350  -18.7550   19.8370 C.3   205  GLU205      0.0388
     83  CG       -34.1250  -19.1300   19.7940 C.3   205  GLU205      0.1160
     84  CD       -34.6260  -19.8060   21.0780 C.2   205  GLU205      0.3649
     85  OE1      -33.9750  -20.7450   21.5730 O.co2 205  GLU205     -0.2457
     86  OE2      -35.6850  -19.3990   21.5870 O.co2 205  GLU205     -0.2457
     87  N        -36.0160  -14.6400   21.5160 N.3   207  TRP207     -0.1241
     88  CA       -37.4580  -14.8240   21.3430 C.3   207  TRP207      0.1605
     89  C        -38.3360  -14.1580   22.3880 C.2   207  TRP207      0.2264
     90  O        -38.6180  -14.7630   23.4250 O.2   207  TRP207     -0.2867
     91  CB       -37.7560  -16.3160   21.3520 C.3   207  TRP207      0.0550
     92  CG       -39.1540  -16.7070   21.0480 C.ar  207  TRP207      0.0003
     93  CD1      -40.1960  -15.8910   20.7150 C.ar  207  TRP207      0.0946
     94  CD2      -39.6490  -18.0470   20.9630 C.ar  207  TRP207      0.0152
     95  NE1      -41.3120  -16.6460   20.4190 N.ar  207  TRP207     -0.2442
     96  CE2      -40.9980  -17.9730   20.5630 C.ar  207  TRP207      0.0810
     97  CE3      -39.0770  -19.3060   21.1830 C.ar  207  TRP207      0.0012
     98  CZ2      -41.7830  -19.1130   20.3750 C.ar  207  TRP207      0.0191
     99  CZ3      -39.8530  -20.4350   20.9980 C.ar  207  TRP207      0.0001
    100  CH2      -41.1940  -20.3340   20.5960 C.ar  207  TRP207      0.0015
    101  N        -38.0570  -26.6030   16.1680 N.3   290  HIS290     -0.1226
    102  CA       -38.3850  -27.7050   17.0650 C.3   290  HIS290      0.1752
    103  C        -39.2180  -27.2810   18.2750 C.2   290  HIS290      0.2596
    104  O        -39.7650  -28.1260   18.9850 O.2   290  HIS290     -0.2718
    105  CB       -37.1190  -28.3970   17.5390 C.3   290  HIS290      0.0759
    106  CG       -36.2290  -27.5160   18.3410 C.ar  290  HIS290      0.0818
    107  ND1      -35.6240  -26.3990   17.8130 N.ar  290  HIS290     -0.2268
    108  CD2      -35.8590  -27.5700   19.6390 C.ar  290  HIS290      0.1154
    109  CE1      -34.9190  -25.8000   18.7530 C.ar  290  HIS290      0.1986
    110  NE2      -35.0460  -26.4900   19.8710 N.ar  290  HIS290     -0.2212
    111  N        -39.3050  -25.9740   18.5190 N.am  291  ASP291     -0.1974
    112  CA       -40.1050  -25.4560   19.6340 C.3   291  ASP291      0.1709
    113  C        -41.5030  -25.1040   19.1110 C.2   291  ASP291      0.2293
    114  O        -42.5110  -25.6250   19.6030 O.2   291  ASP291     -0.2864
    115  CB       -39.4860  -24.1840   20.2500 C.3   291  ASP291      0.1436
    116  CG       -38.0600  -24.3850   20.7470 C.2   291  ASP291      0.3671
    117  OD1      -37.7470  -25.4540   21.3150 O.co2 291  ASP291     -0.2456
    118  OD2      -37.2490  -23.4440   20.5820 O.co2 291  ASP291     -0.2456
    119  N        -43.8350  -30.2070   20.0220 N.3   296  GLN296     -0.1245
    120  CA       -43.8690  -29.3070   21.1680 C.3   296  GLN296      0.1566
    121  C        -44.9480  -28.2820   20.8500 C.2   296  GLN296      0.2260
    122  O        -45.6390  -27.7680   21.7420 O.2   296  GLN296     -0.2867
    123  CB       -42.5390  -28.5930   21.3610 C.3   296  GLN296      0.0367
    124  CG       -41.4470  -29.4210   22.0070 C.3   296  GLN296      0.0905
    125  CD       -40.4210  -28.5410   22.6930 C.2   296  GLN296      0.2608
    126  OE1      -40.5530  -28.2210   23.8800 O.2   296  GLN296     -0.2717
    127  NE2      -39.4040  -28.1170   21.9390 N.am  296  GLN296     -0.0878
    128  N        -45.3700  -25.1190   20.3270 N.3   298  MET298     -0.1245
    129  CA       -45.6160  -23.9420   21.1410 C.3   298  MET298      0.1570
    130  C        -46.2150  -22.8280   20.2980 C.2   298  MET298      0.2261
    131  O        -46.8780  -21.9330   20.8200 O.2   298  MET298     -0.2867
    132  CB       -44.3160  -23.4370   21.7550 C.3   298  MET298      0.0387
    133  CG       -43.8100  -24.2080   22.9470 C.3   298  MET298      0.0595
    134  SD       -42.2250  -23.5470   23.4700 S.3   298  MET298     -0.1393
    135  CE       -41.2390  -25.0090   23.4950 C.3   298  MET298      0.0692
@<TRIPOS>BOND
     1   101   102    1
     2    52    53    1
     3    52    49    1
     4    53    54    1
     5    48    49    1
     6    49    50    1
     7   102   105    1
     8   102   103    1
     9   105   106    1
    10     1     2    1
    11    54    55    1
    12   107   106   ar
    13   107   109   ar
    14    55    56    2
    15    50    51    2
    16   103   111   am
    17   103   104    2
    18   106   108   ar
    19   111   112    1
    20   109   110   ar
    21     2     3    1
    22     2     5    1
    23    56    58    1
    24    56    57    1
    25    78    79    1
    26   113   114    2
    27   113   112    1
    28     3     4    2
    29    79    82    1
    30    79    80    1
    31     5     6    1
    32   112   115    1
    33   108   110   ar
    34    83    82    1
    35    83    84    1
    36    26    25    1
    37   119   120    1
    38   115   116    1
    39   130   131    2
    40   130   129    1
    41   128   129    1
    42    98    96   ar
    43    98   100   ar
    44    95    96   ar
    45    95    93   ar
    46    80    81    2
    47    96    94   ar
    48   118   116   ar
    49   100    99   ar
    50    93    92   ar
    51   116   117   ar
    52   121   120    1
    53   121   122    2
    54    94    92   ar
    55    94    97   ar
    56    99    97   ar
    57     6     8   ar
    58     6     7   ar
    59    92    91    1
    60    84    85   ar
    61    84    86   ar
    62   129   132    1
    63   120   123    1
    64    25    24   ar
    65    25    23   ar
    66    88    91    1
    67    88    87    1
    68    88    89    1
    69   123   124    1
    70    59    60    1
    71    11     8   ar
    72    11    13   ar
    73   132   133    1
    74     8    10   ar
    75     7     9   ar
    76    24    22   ar
    77   127   125   am
    78   124   125    1
    79    23    21   ar
    80    60    63    1
    81    60    61    1
    82    89    90    2
    83    13    14   ar
    84   125   126    2
    85    63    64    1
    86   133   134    1
    87     9    10   ar
    88    10    12   ar
    89    22    20   ar
    90    61    67   am
    91    61    62    2
    92    67    68    1
    93    21    20   ar
    94    65    64   ar
    95   134   135    1
    96    64    66   ar
    97    14    12   ar
    98    20    19    1
    99    68    69    1
   100    68    71    1
   101    69    70    2
   102    19    16    1
   103    15    16    1
   104    71    72    1
   105    16    17    1
   106    73    72   ar
   107    73    75   ar
   108    72    74   ar
   109    17    18    2
   110    75    77   ar
   111    74    76   ar
   112    77    76   ar
   113    35    36   ar
   114    35    33   ar
   115    36    34   ar
   116    33    32   ar
   117    30    29    2
   118    27    28    1
   119    45    47   ar
   120    45    43   ar
   121    34    32   ar
   122    47    46   ar
   123    32    31    1
   124    43    42   ar
   125    29    28    1
   126    46    44   ar
   127    28    31    1
   128    42    44   ar
   129    42    41    1
   130    41    38    1
   131    38    37    1
   132    38    39    1
   133    39    40    2
