@<TRIPOS>MOLECULE
tmp/3bssA00.pdb
 138 133 0 0 0
SMALL
GASTEIGER

@<TRIPOS>ATOM
      1  N          5.8320  -31.5350   -6.7890 N.3     9  TYR9       -0.1227
      2  CA         5.7550  -32.8420   -7.3850 C.3     9  TYR9        0.1736
      3  C          4.8340  -32.7950   -8.6170 C.2     9  TYR9        0.2596
      4  O          3.6060  -32.6720   -8.4900 O.2     9  TYR9       -0.2718
      5  CB         5.2650  -33.8300   -6.3290 C.3     9  TYR9        0.0548
      6  CG         5.6120  -35.2900   -6.5600 C.ar    9  TYR9       -0.0200
      7  CD1        5.9890  -36.1010   -5.4910 C.ar    9  TYR9       -0.0009
      8  CD2        5.5310  -35.8690   -7.8340 C.ar    9  TYR9       -0.0009
      9  CE1        6.2860  -37.4470   -5.6780 C.ar    9  TYR9        0.0417
     10  CE2        5.8180  -37.2060   -8.0360 C.ar    9  TYR9        0.0417
     11  CZ         6.2000  -37.9940   -6.9500 C.ar    9  TYR9        0.1957
     12  OH         6.4820  -39.3370   -7.1310 O.3     9  TYR9       -0.2866
     13  N          5.4520  -32.9050   -9.7980 N.am   10  GLY10      -0.1957
     14  CA         4.7930  -32.7120  -11.0970 C.3    10  GLY10       0.1869
     15  C          5.4790  -31.5660  -11.8230 C.2    10  GLY10       0.2309
     16  O          5.3100  -30.3950  -11.4600 O.2    10  GLY10      -0.2863
     17  N          5.3860  -30.6000  -15.1740 N.3    12  SER12      -0.1202
     18  CA         4.8670  -30.1260  -16.4670 C.3    12  SER12       0.2020
     19  C          4.0590  -28.8380  -16.3140 C.2    12  SER12       0.2619
     20  O          4.4290  -27.9780  -15.5140 O.2    12  SER12      -0.2717
     21  CB         4.0900  -31.2260  -17.1790 C.3    12  SER12       0.2103
     22  OG         4.9370  -32.3330  -17.3880 O.3    12  SER12      -0.2182
     23  N          2.9690  -28.7030  -17.0710 N.am   13  GLY13      -0.1942
     24  CA         2.2110  -27.4520  -17.1190 C.3    13  GLY13       0.2014
     25  C          1.5900  -27.0210  -15.8000 C.2    13  GLY13       0.2638
     26  O          1.6600  -25.8470  -15.4310 O.2    13  GLY13      -0.2714
     27  N          0.9740  -27.9610  -15.0890 N.am   14  HIS14      -0.1973
     28  CA         0.4100  -27.6480  -13.7780 C.3    14  HIS14       0.1656
     29  C          1.4990  -27.2230  -12.7700 C.2    14  HIS14       0.2291
     30  O          1.2950  -26.2930  -11.9800 O.2    14  HIS14      -0.2864
     31  CB        -0.4420  -28.8150  -13.2680 C.3    14  HIS14       0.0771
     32  CG        -1.3900  -28.4420  -12.1710 C.ar   14  HIS14       0.0820
     33  ND1       -2.2790  -27.3860  -12.2740 N.ar   14  HIS14      -0.2267
     34  CD2       -1.6000  -28.9960  -10.9520 C.ar   14  HIS14       0.1154
     35  CE1       -2.9810  -27.2990  -11.1590 C.ar   14  HIS14       0.1986
     36  NE2       -2.5940  -28.2680  -10.3430 N.ar   14  HIS14      -0.2212
     37  N          2.3390  -23.4500  -13.0460 N.3    17  VAL17      -0.1245
     38  CA         1.4330  -22.4900  -12.3840 C.3    17  VAL17       0.1561
     39  C          1.5380  -22.5980  -10.8530 C.2    17  VAL17       0.2260
     40  O          1.4500  -21.5880  -10.1590 O.2    17  VAL17      -0.2867
     41  CB        -0.0640  -22.5890  -12.8860 C.3    17  VAL17       0.0252
     42  CG1       -0.1300  -22.5810  -14.4140 C.3    17  VAL17       0.0019
     43  CG2       -0.7880  -23.8360  -12.3340 C.3    17  VAL17       0.0019
     44  N          9.5030  -35.4690  -10.0980 N.3    34  ASP34      -0.1225
     45  CA         8.7070  -36.0790  -11.1470 C.3    34  ASP34       0.1805
     46  C          9.1970  -37.5070  -11.3190 C.2    34  ASP34       0.2598
     47  O         10.3970  -37.7680  -11.2790 O.2    34  ASP34      -0.2718
     48  CB         8.8520  -35.2700  -12.4550 C.3    34  ASP34       0.1424
     49  CG         7.7150  -35.5010  -13.4240 C.2    34  ASP34       0.3668
     50  OD1        7.6160  -36.6200  -13.9970 O.co2  34  ASP34      -0.2456
     51  OD2        6.9190  -34.5460  -13.6230 O.co2  34  ASP34      -0.2456
     52  N          8.2660  -38.4270  -11.5100 N.am   35  ASP35      -0.1960
     53  CA         8.5980  -39.8300  -11.7160 C.3    35  ASP35       0.1840
     54  C          9.1930  -40.1400  -13.1010 C.2    35  ASP35       0.2622
     55  O          9.8020  -41.2040  -13.2830 O.2    35  ASP35      -0.2715
     56  CB         7.3570  -40.6940  -11.4710 C.3    35  ASP35       0.1450
     57  CG         6.8960  -40.6460  -10.0150 C.2    35  ASP35       0.3671
     58  OD1        7.7230  -40.8920   -9.1180 O.co2  35  ASP35      -0.2456
     59  OD2        5.7240  -40.3450   -9.7440 O.co2  35  ASP35      -0.2456
     60  N          9.0130  -39.2260  -14.0650 N.am   36  PHE36      -0.1960
     61  CA         9.2870  -39.5260  -15.4710 C.3    36  PHE36       0.1771
     62  C         10.2580  -38.5580  -16.1460 C.2    36  PHE36       0.2619
     63  O         10.5280  -38.6690  -17.3370 O.2    36  PHE36      -0.2715
     64  CB         7.9760  -39.7340  -16.2620 C.3    36  PHE36       0.0574
     65  CG         7.1130  -40.8430  -15.6950 C.ar   36  PHE36      -0.0200
     66  CD1        7.5480  -42.1760  -15.7310 C.ar   36  PHE36      -0.0042
     67  CD2        5.8800  -40.5520  -15.0810 C.ar   36  PHE36      -0.0042
     68  CE1        6.7560  -43.2180  -15.1670 C.ar   36  PHE36      -0.0003
     69  CE2        5.0820  -41.5700  -14.5160 C.ar   36  PHE36      -0.0003
     70  CZ         5.5120  -42.9080  -14.5580 C.ar   36  PHE36      -0.0000
     71  N         10.8140  -37.6420  -15.3570 N.am   37  LYS37      -0.1977
     72  CA        11.8820  -36.7510  -15.7970 C.3    37  LYS37       0.1596
     73  C         12.4750  -36.0020  -14.6100 C.2    37  LYS37       0.2287
     74  O         11.8030  -35.7950  -13.5880 O.2    37  LYS37      -0.2864
     75  CB        11.3790  -35.7520  -16.8630 C.3    37  LYS37       0.0298
     76  CG        10.2410  -34.8250  -16.4060 C.3    37  LYS37       0.0038
     77  CD         9.7390  -33.9660  -17.5740 C.3    37  LYS37       0.0206
     78  CE         8.6300  -33.0370  -17.1620 C.3    37  LYS37       0.1093
     79  NZ         7.9240  -32.4310  -18.3610 N.3    37  LYS37      -0.1314
     80  N          1.6410  -31.0270   -7.7670 N.3    53  ALA53      -0.1231
     81  CA         1.2310  -30.2740   -8.9540 C.3    53  ALA53       0.1694
     82  C          0.8540  -31.1970  -10.1090 C.2    53  ALA53       0.2592
     83  O          1.4480  -31.1470  -11.1900 O.2    53  ALA53      -0.2718
     84  CB         2.3360  -29.3260   -9.3770 C.3    53  ALA53       0.0304
     85  N         -0.1430  -32.0410   -9.8760 N.am   54  ILE54      -0.1966
     86  CA        -0.6340  -32.9320  -10.9080 C.3    54  ILE54       0.1727
     87  C         -2.1440  -32.7280  -11.0550 C.2    54  ILE54       0.2617
     88  O         -2.8860  -32.8870  -10.0830 O.2    54  ILE54      -0.2715
     89  CB        -0.2810  -34.4190  -10.6010 C.3    54  ILE54       0.0290
     90  CG1        1.2520  -34.6220  -10.6740 C.3    54  ILE54       0.0022
     91  CG2       -1.0110  -35.3750  -11.5850 C.3    54  ILE54       0.0023
     92  CD1        1.7650  -35.9150  -10.0240 C.3    54  ILE54       0.0001
     93  N         -2.5850  -32.3820  -12.2660 N.am   55  GLY55      -0.1940
     94  CA        -3.9840  -32.0620  -12.5230 C.3    55  GLY55       0.2014
     95  C         -4.9360  -33.2350  -12.3640 C.2    55  GLY55       0.2638
     96  O         -6.0400  -33.0850  -11.8260 O.2    55  GLY55      -0.2714
     97  N         -4.5180  -34.4090  -12.8370 N.am   56  ASN56      -0.1972
     98  CA        -5.3420  -35.6040  -12.7370 C.3    56  ASN56       0.1688
     99  C         -5.6720  -35.9260  -11.2770 C.2    56  ASN56       0.2292
    100  O         -4.7730  -36.1130  -10.4620 O.2    56  ASN56      -0.2864
    101  CB        -4.6550  -36.7890  -13.4270 C.3    56  ASN56       0.1181
    102  CG        -5.4950  -38.0450  -13.3830 C.2    56  ASN56       0.2629
    103  OD1       -5.4640  -38.7860  -12.4040 O.2    56  ASN56      -0.2716
    104  ND2       -6.2760  -38.2760  -14.4320 N.am   56  ASN56      -0.0877
    105  N         -4.3800  -39.4190   -9.7620 N.3    59  ILE59      -0.1245
    106  CA        -2.9250  -39.4520   -9.5870 C.3    59  ILE59       0.1561
    107  C         -2.4820  -38.4920   -8.4880 C.2    59  ILE59       0.2260
    108  O         -1.6320  -38.8440   -7.6570 O.2    59  ILE59      -0.2867
    109  CB        -2.1690  -39.1710  -10.9300 C.3    59  ILE59       0.0252
    110  CG1       -2.4900  -40.2640  -11.9740 C.3    59  ILE59       0.0019
    111  CG2       -0.6430  -39.0300  -10.7050 C.3    59  ILE59       0.0019
    112  CD1       -2.0580  -39.9000  -13.4010 C.3    59  ILE59       0.0001
    113  N         -0.3260  -39.7740   -5.1940 N.3    63  ILE63      -0.1245
    114  CA         0.9480  -39.1630   -4.8540 C.3    63  ILE63       0.1561
    115  C          0.8450  -38.4290   -3.5130 C.2    63  ILE63       0.2260
    116  O          1.7850  -38.4740   -2.7120 O.2    63  ILE63      -0.2867
    117  CB         1.4580  -38.2030   -5.9610 C.3    63  ILE63       0.0252
    118  CG1        1.6550  -38.9360   -7.3080 C.3    63  ILE63       0.0019
    119  CG2        2.7310  -37.4890   -5.5230 C.3    63  ILE63       0.0019
    120  CD1        2.7180  -39.9840   -7.3080 C.3    63  ILE63       0.0001
    121  N         -9.1290  -23.5900   -9.8530 N.3   117  ASN117     -0.1240
    122  CA        -8.2660  -23.0630  -10.8970 C.3   117  ASN117      0.1653
    123  C         -8.6060  -21.6000  -11.2320 C.2   117  ASN117      0.2266
    124  O         -9.5380  -21.0440  -10.6600 O.2   117  ASN117     -0.2867
    125  CB        -8.2560  -23.9850  -12.1220 C.3   117  ASN117      0.1155
    126  CG        -6.8540  -24.1660  -12.6810 C.2   117  ASN117      0.2627
    127  OD1       -6.1150  -23.1850  -12.8260 O.2   117  ASN117     -0.2716
    128  ND2       -6.4640  -25.4210  -12.9600 N.am  117  ASN117     -0.0877
    129  N        -11.4600  -30.9630   -8.8280 N.3   133  HIS133     -0.1241
    130  CA       -10.8140  -29.9390   -9.6130 C.3   133  HIS133      0.1621
    131  C        -11.9060  -29.0620  -10.2190 C.2   133  HIS133      0.2264
    132  O        -12.7230  -29.5280  -11.0200 O.2   133  HIS133     -0.2867
    133  CB        -9.9270  -30.5590  -10.7010 C.3   133  HIS133      0.0745
    134  CG        -9.2620  -29.5560  -11.6000 C.ar  133  HIS133      0.0817
    135  ND1       -8.5620  -29.9240  -12.7290 N.ar  133  HIS133     -0.2268
    136  CD2       -9.1750  -28.2020  -11.5310 C.ar  133  HIS133      0.1154
    137  CE1       -8.0860  -28.8410  -13.3230 C.ar  133  HIS133      0.1986
    138  NE2       -8.4330  -27.7830  -12.6090 N.ar  133  HIS133     -0.2212
@<TRIPOS>BOND
     1    79    78    1
     2    77    78    1
     3    77    76    1
     4    22    21    1
     5    63    62    2
     6    21    18    1
     7    24    23    1
     8    24    25    1
     9    23    19   am
    10    75    76    1
    11    75    72    1
    12    18    19    1
    13    18    17    1
    14    19    20    2
    15    64    65    1
    16    64    61    1
    17    62    61    1
    18    62    71   am
    19    25    26    2
    20    25    27   am
    21    72    71    1
    22    72    73    1
    23    66    65   ar
    24    66    68   ar
    25    65    67   ar
    26    61    60    1
    27    68    70   ar
    28    27    28    1
    29    67    69   ar
    30    73    74    2
    31    70    69   ar
    32   104   102   am
    33    42    41    1
    34    60    54   am
    35    50    49   ar
    36    28    31    1
    37    28    29    1
    38    51    49   ar
    39   101   102    1
    40   101    98    1
    41    49    48    1
    42   112   110    1
    43   102   103    2
    44   137   135   ar
    45   137   138   ar
    46    55    54    2
    47    31    32    1
    48    54    53    1
    49    37    38    1
    50   128   126   am
    51    41    38    1
    52    41    43    1
    53    97    98    1
    54    97    95   am
    55   127   126    2
    56    29    30    2
    57    98    99    1
    58   135   134   ar
    59   126   125    1
    60   138   136   ar
    61    94    95    1
    62    94    93    1
    63    48    45    1
    64    38    39    1
    65    95    96    2
    66    33    32   ar
    67    33    35   ar
    68    93    87   am
    69    32    34   ar
    70   125   122    1
    71   110   109    1
    72    15    16    2
    73    15    14    1
    74    53    52    1
    75    53    56    1
    76   134   136   ar
    77   134   133    1
    78    91    89    1
    79    52    46   am
    80    56    57    1
    81    46    47    2
    82    46    45    1
    83    99   100    2
    84   123   122    1
    85   123   124    2
    86    83    82    2
    87    35    36   ar
    88    45    44    1
    89    14    13    1
    90    87    86    1
    91    87    88    2
    92   132   131    2
    93    34    36   ar
    94   109   111    1
    95   109   106    1
    96    86    89    1
    97    86    85    1
    98   122   121    1
    99    39    40    2
   100   133   130    1
   101    90    89    1
   102    90    92    1
   103   131   130    1
   104    82    85   am
   105    82    81    1
   106    57    59   ar
   107    57    58   ar
   108    13     3   am
   109   105   106    1
   110   130   129    1
   111   106   107    1
   112    84    81    1
   113    81    80    1
   114     3     4    2
   115     3     2    1
   116   107   108    2
   117    10     8   ar
   118    10    11   ar
   119     8     6   ar
   120     2     1    1
   121     2     5    1
   122   118   120    1
   123   118   117    1
   124    12    11    1
   125    11     9   ar
   126     6     5    1
   127     6     7   ar
   128   117   119    1
   129   117   114    1
   130     9     7   ar
   131   113   114    1
   132   114   115    1
   133   115   116    2
