@<TRIPOS>MOLECULE
tmp/3bsyC01.pdb
 118 111 0 0 0
SMALL
GASTEIGER

@<TRIPOS>ATOM
      1  N         -3.3250  -18.3730    1.8260 N.3    14  HIS14      -0.1241
      2  CA        -2.6880  -18.3700    3.1500 C.3    14  HIS14       0.1621
      3  C         -1.6420  -19.5000    3.2430 C.2    14  HIS14       0.2264
      4  O         -0.5610  -19.2900    3.7800 O.2    14  HIS14      -0.2867
      5  CB        -3.7290  -18.4260    4.2860 C.3    14  HIS14       0.0745
      6  CG        -3.1780  -18.0880    5.6460 C.ar   14  HIS14       0.0817
      7  ND1       -2.6080  -16.8660    5.9390 N.ar   14  HIS14      -0.2268
      8  CD2       -3.1350  -18.8060    6.7960 C.ar   14  HIS14       0.1154
      9  CE1       -2.2290  -16.8520    7.2050 C.ar   14  HIS14       0.1986
     10  NE2       -2.5390  -18.0170    7.7500 N.ar   14  HIS14      -0.2212
     11  N          0.1150  -10.6910   10.7460 N.3   117  ASN117     -0.1240
     12  CA         0.3710  -10.6520    9.3110 C.3   117  ASN117      0.1653
     13  C          1.3820   -9.5900    8.9140 C.2   117  ASN117      0.2266
     14  O          1.8600   -8.8220    9.7450 O.2   117  ASN117     -0.2867
     15  CB        -0.9360  -10.4980    8.5340 C.3   117  ASN117      0.1155
     16  CG        -1.0450  -11.5050    7.4250 C.2   117  ASN117      0.2627
     17  OD1       -0.1150  -11.6670    6.6190 O.2   117  ASN117     -0.2716
     18  ND2       -2.1800  -12.2070    7.3750 N.am  117  ASN117     -0.0877
     19  N         -6.5070  -12.7340   14.7070 N.3   133  HIS133     -0.1241
     20  CA        -5.8240  -12.4310   13.4600 C.3   133  HIS133      0.1621
     21  C         -5.5850  -10.9170   13.4060 C.2   133  HIS133      0.2264
     22  O         -6.5270  -10.1270   13.3070 O.2   133  HIS133     -0.2867
     23  CB        -6.6550  -12.9180   12.2700 C.3   133  HIS133      0.0745
     24  CG        -6.0160  -12.6780   10.9330 C.ar  133  HIS133      0.0817
     25  ND1       -6.5860  -13.1060    9.7530 N.ar  133  HIS133     -0.2268
     26  CD2       -4.8540  -12.0690   10.5910 C.ar  133  HIS133      0.1154
     27  CE1       -5.8200  -12.7380    8.7380 C.ar  133  HIS133      0.1986
     28  NE2       -4.7580  -12.1170    9.2220 N.ar  133  HIS133     -0.2212
     29  N         -4.2020   -8.3180   11.0410 N.3   135  SER135     -0.1202
     30  CA        -3.9990   -8.3270    9.5850 C.3   135  SER135      0.2020
     31  C         -2.8150   -7.4850    9.1590 C.2   135  SER135      0.2618
     32  O         -2.1520   -6.8420    9.9800 O.2   135  SER135     -0.2717
     33  CB        -5.2350   -7.8040    8.8190 C.3   135  SER135      0.2103
     34  OG        -6.3710   -8.6090    9.0010 O.3   135  SER135     -0.2182
     35  N         -2.5910   -7.4850    7.8460 N.am  136  VAL136     -0.1979
     36  CA        -1.5030   -6.7290    7.2360 C.3   136  VAL136      0.1595
     37  C         -1.5590   -5.2600    7.6230 C.2   136  VAL136      0.2287
     38  O         -2.6030   -4.6050    7.4650 O.2   136  VAL136     -0.2864
     39  CB        -1.5570   -6.8710    5.6980 C.3   136  VAL136      0.0276
     40  CG1       -0.6070   -5.8800    5.0290 C.3   136  VAL136      0.0022
     41  CG2       -1.2240   -8.3080    5.3080 C.3   136  VAL136      0.0022
     42  N        -10.4440  -10.3190   15.0610 N.3   151  PHE151     -0.1241
     43  CA        -9.9340  -10.0860   13.7110 C.3   151  PHE151      0.1605
     44  C         -9.7400   -8.5780   13.5360 C.2   151  PHE151      0.2264
     45  O        -10.7030   -7.8060   13.6000 O.2   151  PHE151     -0.2867
     46  CB       -10.9400  -10.6340   12.7040 C.3   151  PHE151      0.0534
     47  CG       -10.5530  -10.4550   11.2510 C.ar  151  PHE151     -0.0203
     48  CD1       -9.2340  -10.5690   10.8300 C.ar  151  PHE151     -0.0042
     49  CD2      -11.5420  -10.2370   10.2960 C.ar  151  PHE151     -0.0042
     50  CE1       -8.8980  -10.4320    9.4750 C.ar  151  PHE151     -0.0003
     51  CE2      -11.2120  -10.0980    8.9370 C.ar  151  PHE151     -0.0003
     52  CZ        -9.8820  -10.1930    8.5370 C.ar  151  PHE151     -0.0000
     53  N         -8.6530   -5.9130   10.8910 N.3   153  GLY153     -0.1210
     54  CA        -8.5370   -5.8740    9.4430 C.3   153  GLY153      0.1956
     55  C         -7.3300   -5.0960    8.9720 C.2   153  GLY153      0.2611
     56  O         -6.6240   -4.4780    9.7590 O.2   153  GLY153     -0.2717
     57  N         -7.0960   -5.1630    7.6630 N.am  154  ILE154     -0.1979
     58  CA        -5.9490   -4.5100    7.0350 C.3   154  ILE154      0.1595
     59  C         -5.8320   -3.0250    7.4140 C.2   154  ILE154      0.2287
     60  O         -6.8140   -2.2710    7.3560 O.2   154  ILE154     -0.2864
     61  CB        -6.0080   -4.7400    5.4910 C.3   154  ILE154      0.0276
     62  CG1       -4.7720   -4.1560    4.7830 C.3   154  ILE154      0.0022
     63  CG2       -7.3360   -4.2090    4.9020 C.3   154  ILE154      0.0022
     64  CD1       -4.6510   -4.5920    3.3400 C.3   154  ILE154      0.0001
     65  N        -14.6040   -8.0220   15.5340 N.3   169  ILE169     -0.1231
     66  CA       -13.9310   -7.6590   14.2890 C.3   169  ILE169      0.1692
     67  C        -13.7240   -6.1550   14.2790 C.2   169  ILE169      0.2592
     68  O        -14.6590   -5.3840   14.5160 O.2   169  ILE169     -0.2718
     69  CB       -14.7330   -8.0730   13.0200 C.3   169  ILE169      0.0266
     70  CG1      -14.9760   -9.5880   12.9920 C.3   169  ILE169      0.0019
     71  CG2      -14.0040   -7.6190   11.7250 C.3   169  ILE169      0.0020
     72  CD1      -16.1110  -10.0090   12.0530 C.3   169  ILE169      0.0001
     73  N        -12.4860   -5.7480   14.0240 N.am  170  LEU170     -0.1966
     74  CA       -12.1840   -4.3640   13.7560 C.3   170  LEU170      0.1728
     75  C        -12.0000   -4.2660   12.2390 C.2   170  LEU170      0.2617
     76  O        -11.1340   -4.9300   11.6760 O.2   170  LEU170     -0.2715
     77  CB       -10.9230   -3.9390   14.5200 C.3   170  LEU170      0.0311
     78  CG       -10.4790   -2.4800   14.3730 C.3   170  LEU170      0.0022
     79  CD1      -11.5700   -1.5180   14.8460 C.3   170  LEU170      0.0001
     80  CD2       -9.1680   -2.2350   15.1430 C.3   170  LEU170      0.0001
     81  N        -12.8330   -3.4760   11.5690 N.am  171  GLY171     -0.1940
     82  CA       -12.8030   -3.4450   10.1050 C.3   171  GLY171      0.2014
     83  C        -11.4820   -2.9600    9.5170 C.2   171  GLY171      0.2639
     84  O        -10.6720   -2.3300   10.2120 O.2   171  GLY171     -0.2714
     85  N        -11.2750   -3.2740    8.2360 N.am  172  GLY172     -0.1939
     86  CA       -10.1720   -2.7060    7.4540 C.3   172  GLY172      0.2014
     87  C        -10.1630   -1.1890    7.5850 C.2   172  GLY172      0.2639
     88  O        -11.2090   -0.5360    7.4570 O.2   172  GLY172     -0.2714
     89  N         -8.9930   -0.6280    7.8840 N.am  173  GLY173     -0.1954
     90  CA        -8.8410    0.8180    7.9990 C.3   173  GLY173      0.1869
     91  C         -9.4720    1.4690    9.2220 C.2   173  GLY173      0.2309
     92  O         -9.3700    2.6790    9.3880 O.2   173  GLY173     -0.2863
     93  N        -18.8180   -5.7060   15.4920 N.3   185  VAL185     -0.1245
     94  CA       -18.0530   -5.3380   14.3050 C.3   185  VAL185      0.1561
     95  C        -17.9250   -3.8110   14.3180 C.2   185  VAL185      0.2260
     96  O        -18.9340   -3.0900   14.3320 O.2   185  VAL185     -0.2867
     97  CB       -18.7490   -5.8310   13.0170 C.3   185  VAL185      0.0252
     98  CG1      -17.9500   -5.4270   11.7730 C.3   185  VAL185      0.0019
     99  CG2      -18.9560   -7.3540   13.0630 C.3   185  VAL185      0.0019
    100  N        -16.2990   -0.3050   12.6620 N.3   187  VAL187     -0.1231
    101  CA       -15.7950    0.2180   11.3900 C.3   187  VAL187      0.1692
    102  C        -15.6790    1.7420   11.4070 C.2   187  VAL187      0.2592
    103  O        -16.4360    2.4260   12.1040 O.2   187  VAL187     -0.2718
    104  CB       -16.6470   -0.2560   10.1610 C.3   187  VAL187      0.0266
    105  CG1      -16.6430   -1.7770   10.0350 C.3   187  VAL187      0.0020
    106  CG2      -18.0800    0.2850   10.2100 C.3   187  VAL187      0.0020
    107  N        -14.7130    2.2630   10.6510 N.am  188  GLY188     -0.1957
    108  CA       -14.5340    3.7070   10.4990 C.3   188  GLY188      0.1869
    109  C        -13.4410    4.3570   11.3350 C.2   188  GLY188      0.2309
    110  O        -12.8170    3.7130   12.1900 O.2   188  GLY188     -0.2863
    111  N        -21.1840   -1.5910   14.0650 N.3   194  MET194     -0.1245
    112  CA       -21.9560   -1.7790   12.8480 C.3   194  MET194      0.1570
    113  C        -23.2490   -2.5310   13.1740 C.2   194  MET194      0.2261
    114  O        -23.3880   -3.1060   14.2630 O.2   194  MET194     -0.2867
    115  CB       -21.1220   -2.5820   11.8620 C.3   194  MET194      0.0387
    116  CG       -21.4440   -2.3680   10.4100 C.3   194  MET194      0.0595
    117  SD       -20.3110   -3.3730    9.4350 S.3   194  MET194     -0.1393
    118  CE       -20.9440   -5.0160    9.7850 C.3   194  MET194      0.0692
@<TRIPOS>BOND
     1     1     2    1
     2     2     3    1
     3     2     5    1
     4     3     4    2
     5    64    62    1
     6     5     6    1
     7    62    61    1
     8    63    61    1
     9    40    39    1
    10    41    39    1
    11    61    58    1
    12     6     7   ar
    13     6     8   ar
    14    39    36    1
    15     7     9   ar
    16    17    16    2
    17     8    10   ar
    18    58    59    1
    19    58    57    1
    20     9    10   ar
    21    36    37    1
    22    36    35    1
    23    60    59    2
    24    18    16   am
    25    16    15    1
    26    86    87    1
    27    86    85    1
    28    88    87    2
    29    38    37    2
    30    87    89   am
    31    57    55   am
    32    35    31   am
    33    89    90    1
    34    90    91    1
    35    85    83   am
    36    15    12    1
    37    52    51   ar
    38    52    50   ar
    39    27    28   ar
    40    27    25   ar
    41    33    34    1
    42    33    30    1
    43    13    12    1
    44    13    14    2
    45    51    49   ar
    46    55    54    1
    47    55    56    2
    48    31    30    1
    49    31    32    2
    50    91    92    2
    51    28    26   ar
    52    12    11    1
    53   117   118    1
    54   117   116    1
    55    54    53    1
    56    50    48   ar
    57    83    82    1
    58    83    84    2
    59    30    29    1
    60    25    24   ar
    61   105   104    1
    62    82    81    1
    63   104   106    1
    64   104   101    1
    65    49    47   ar
    66   116   115    1
    67   108   107    1
    68   108   109    1
    69    26    24   ar
    70   107   102   am
    71    48    47   ar
    72    24    23    1
    73    47    46    1
    74   109   110    2
    75   101   102    1
    76   101   100    1
    77   102   103    2
    78    81    75   am
    79    76    75    2
    80    71    69    1
    81    98    97    1
    82   115   112    1
    83    72    70    1
    84    75    74    1
    85    23    20    1
    86    46    43    1
    87   112   113    1
    88   112   111    1
    89    70    69    1
    90    97    99    1
    91    97    94    1
    92    69    66    1
    93   113   114    2
    94    22    21    2
    95    21    20    1
    96    20    19    1
    97    44    45    2
    98    44    43    1
    99    43    42    1
   100    74    73    1
   101    74    77    1
   102    73    67   am
   103    67    66    1
   104    67    68    2
   105    66    65    1
   106    94    95    1
   107    94    93    1
   108    95    96    2
   109    78    77    1
   110    78    79    1
   111    78    80    1
