@<TRIPOS>MOLECULE
tmp/3bsyC00.pdb
 80 77 0 0 0
SMALL
GASTEIGER

@<TRIPOS>ATOM
      1  N          2.6640   -3.3690   20.0910 N.3   123  GLU123     -0.1231
      2  CA         3.4810   -2.5110   20.9320 C.3   123  GLU123      0.1699
      3  C          3.6850   -3.0970   22.3250 C.2   123  GLU123      0.2592
      4  O          3.0970   -4.1230   22.6700 O.2   123  GLU123     -0.2718
      5  CB         2.9070   -1.0900   20.9960 C.3   123  GLU123      0.0402
      6  CG         3.5020   -0.1700   19.9390 C.3   123  GLU123      0.1161
      7  CD         5.0300   -0.0450   20.0560 C.2   123  GLU123      0.3649
      8  OE1        5.5900   -0.2390   21.1770 O.co2 123  GLU123     -0.2457
      9  OE2        5.6750    0.2410   19.0110 O.co2 123  GLU123     -0.2457
     10  N          4.5240   -2.4440   23.1140 N.am  124  HIS124     -0.1976
     11  CA         4.8710   -2.9440   24.4470 C.3   124  HIS124      0.1656
     12  C          3.6350   -3.2820   25.2910 C.2   124  HIS124      0.2291
     13  O          2.6130   -2.5840   25.2540 O.2   124  HIS124     -0.2864
     14  CB         5.7820   -1.9470   25.1790 C.3   124  HIS124      0.0771
     15  CG         5.2030   -0.5670   25.2770 C.ar  124  HIS124      0.0820
     16  ND1        4.4710   -0.1400   26.3650 N.ar  124  HIS124     -0.2267
     17  CD2        5.2300    0.4750   24.4100 C.ar  124  HIS124      0.1154
     18  CE1        4.0710    1.1040   26.1650 C.ar  124  HIS124      0.1986
     19  NE2        4.5260    1.5020   24.9890 N.ar  124  HIS124     -0.2212
     20  N         -1.3530   -0.2150   19.6970 N.3   141  ALA141     -0.1231
     21  CA        -0.5540    0.6570   20.5640 C.3   141  ALA141      0.1694
     22  C         -0.2670   -0.0340   21.9070 C.2   141  ALA141      0.2592
     23  O         -0.6830   -1.1710   22.1200 O.2   141  ALA141     -0.2718
     24  CB        -1.2520    2.0050   20.7580 C.3   141  ALA141      0.0304
     25  N          0.4440    0.6470   22.8030 N.am  142  GLY142     -0.1957
     26  CA         0.9070    0.0380   24.0470 C.3   142  GLY142      0.1869
     27  C         -0.2360   -0.3620   24.9520 C.2   142  GLY142      0.2309
     28  O         -1.2630    0.3240   25.0040 O.2   142  GLY142     -0.2863
     29  N         -5.7910    2.3830   19.6500 N.3   159  LEU159     -0.1231
     30  CA        -5.1280    3.3310   20.5300 C.3   159  LEU159      0.1678
     31  C         -4.7130    2.6820   21.8600 C.2   159  LEU159      0.2438
     32  O         -5.2190    1.6010   22.2050 O.2   159  LEU159     -0.2733
     33  CB        -6.0350    4.5480   20.7710 C.3   159  LEU159      0.0284
     34  CG        -5.7700    5.7420   19.8640 C.3   159  LEU159      0.0019
     35  CD1       -5.9460    5.3730   18.3870 C.3   159  LEU159      0.0001
     36  CD2       -6.7060    6.8800   20.2580 C.3   159  LEU159      0.0001
     37  N         -3.7810    3.3270   22.5950 N.am  160  PRO160     -0.2653
     38  CA        -3.2240    2.7180   23.8010 C.3   160  PRO160      0.1628
     39  C         -4.2490    2.4470   24.9060 C.2   160  PRO160      0.2315
     40  O         -5.2760    3.1270   25.0010 O.2   160  PRO160     -0.2861
     41  CB        -2.1510    3.7160   24.2740 C.2   160  PRO160     -0.0016
     42  CG        -2.2840    4.9220   23.4450 C.2   160  PRO160     -0.0072
     43  CD        -3.1870    4.6430   22.2910 C.3   160  PRO160      0.1203
     44  N        -10.1030    2.6840   13.1250 N.3   175  THR175     -0.1218
     45  CA        -9.2670    3.1690   14.2410 C.3   175  THR175      0.1862
     46  C        -10.0850    3.0570   15.5290 C.2   175  THR175      0.2287
     47  O        -11.0400    3.8080   15.7180 O.2   175  THR175     -0.2866
     48  CB        -8.8110    4.6480   14.0240 C.3   175  THR175      0.1770
     49  OG1       -7.9670    4.7340   12.8630 O.3   175  THR175     -0.2211
     50  CG2       -8.0390    5.1710   15.2160 C.3   175  THR175      0.0375
     51  N        -10.8490    3.8250   19.1580 N.3   177  VAL177     -0.1231
     52  CA       -10.4910    4.8430   20.1540 C.3   177  VAL177      0.1692
     53  C        -11.1240    4.6650   21.5470 C.2   177  VAL177      0.2591
     54  O        -10.7410    5.3470   22.4980 O.2   177  VAL177     -0.2718
     55  CB       -10.7290    6.2920   19.6260 C.3   177  VAL177      0.0266
     56  CG1      -10.0110    6.5110   18.2840 C.3   177  VAL177      0.0020
     57  CG2      -12.2030    6.5920   19.4920 C.3   177  VAL177      0.0020
     58  N        -12.0720    3.7400   21.6620 N.am  178  LYS178     -0.1980
     59  CA       -12.7160    3.4520   22.9400 C.3   178  LYS178      0.1596
     60  C        -12.6780    1.9520   23.2310 C.2   178  LYS178      0.2287
     61  O        -12.6650    1.1290   22.3050 O.2   178  LYS178     -0.2864
     62  CB       -14.1720    3.9560   22.9310 C.3   178  LYS178      0.0298
     63  CG       -14.3170    5.4660   22.7710 C.3   178  LYS178      0.0038
     64  CD       -13.9870    6.2050   24.0540 C.3   178  LYS178      0.0206
     65  CE       -14.8270    7.4860   24.1890 C.3   178  LYS178      0.1093
     66  NZ       -14.5850    8.4750   23.1230 N.3   178  LYS178     -0.1314
     67  N        -13.2180    5.6480   11.0770 N.3   189  VAL189     -0.1231
     68  CA       -12.3130    6.4790   11.8910 C.3   189  VAL189      0.1678
     69  C        -13.1070    7.6430   12.5220 C.2   189  VAL189      0.2434
     70  O        -13.3510    8.6490   11.8540 O.2   189  VAL189     -0.2733
     71  CB       -11.1070    7.0070   11.0450 C.3   189  VAL189      0.0265
     72  CG1      -10.1550    7.8540   11.8840 C.3   189  VAL189      0.0020
     73  CG2      -10.3460    5.8330   10.3800 C.3   189  VAL189      0.0020
     74  N        -13.5050    7.5170   13.8090 N.am  190  PRO190     -0.2729
     75  CA       -13.2240    6.4420   14.7670 C.3   190  PRO190      0.1401
     76  C        -14.1300    5.2300   14.5530 C.2   190  PRO190      0.2269
     77  O        -15.1810    5.3530   13.9180 O.2   190  PRO190     -0.2865
     78  CB       -13.5320    7.0970   16.1260 C.3   190  PRO190      0.0296
     79  CG       -14.6010    8.1150   15.8120 C.3   190  PRO190      0.0237
     80  CD       -14.3910    8.5570   14.3840 C.3   190  PRO190      0.0939
@<TRIPOS>BOND
     1    73    71    1
     2    71    72    1
     3    71    68    1
     4    67    68    1
     5    70    69    2
     6    68    69    1
     7    69    74   am
     8    49    48    1
     9    44    45    1
    10    74    80    1
    11    74    75    1
    12    77    76    2
    13    48    45    1
    14    48    50    1
    15    45    46    1
    16    80    79    1
    17    76    75    1
    18    75    78    1
    19    46    47    2
    20    79    78    1
    21    56    55    1
    22    35    34    1
    23     9     7   ar
    24    51    52    1
    25    57    55    1
    26    55    52    1
    27    29    30    1
    28    20    21    1
    29    34    36    1
    30    34    33    1
    31     6     7    1
    32     6     5    1
    33     7     8   ar
    34     1     2    1
    35    52    53    1
    36    30    33    1
    37    30    31    1
    38    21    24    1
    39    21    22    1
    40     2     5    1
    41     2     3    1
    42    53    58   am
    43    53    54    2
    44    58    59    1
    45    31    32    2
    46    31    37   am
    47    22    23    2
    48    22    25   am
    49    43    37    1
    50    43    42    1
    51    61    60    2
    52     3     4    2
    53     3    10   am
    54    37    38    1
    55    63    62    1
    56    63    64    1
    57    25    26    1
    58    62    59    1
    59    59    60    1
    60    10    11    1
    61    66    65    1
    62    42    41    2
    63    38    41    1
    64    38    39    1
    65    26    27    1
    66    64    65    1
    67    17    19   ar
    68    17    15   ar
    69    11    14    1
    70    11    12    1
    71    39    40    2
    72    27    28    2
    73    19    18   ar
    74    14    15    1
    75    13    12    2
    76    15    16   ar
    77    18    16   ar
