@<TRIPOS>MOLECULE
tmp/3bt6A01.pdb
 91 85 0 0 0
SMALL
GASTEIGER

@<TRIPOS>ATOM
      1  N         63.9490    1.5060   -5.0600 N.3   122  ARG122     -0.1231
      2  CA        63.3310    1.6740   -6.4050 C.3   122  ARG122      0.1694
      3  C         63.2560    3.1520   -6.8580 C.2   122  ARG122      0.2592
      4  O         63.6140    4.0490   -6.0910 O.2   122  ARG122     -0.2718
      5  CB        61.9620    0.9740   -6.5060 C.3   122  ARG122      0.0321
      6  CG        61.5930    0.5230   -7.9130 C.3   122  ARG122      0.0489
      7  CD        60.9950   -0.8730   -7.9140 C.3   122  ARG122      0.2205
      8  NE        60.4310   -1.2370   -9.2160 N.pl3 122  ARG122     -0.0865
      9  CZ        59.6790   -2.3170   -9.4410 C.cat 122  ARG122      0.5346
     10  NH1       59.3910   -3.1630   -8.4580 N.pl3 122  ARG122      0.1354
     11  NH2       59.2030   -2.5530  -10.6560 N.pl3 122  ARG122      0.1354
     12  N         62.8410    3.4000   -8.1060 N.am  123  ASN123     -0.1974
     13  CA        62.5020    4.7620   -8.5680 C.3   123  ASN123      0.1688
     14  C         61.0770    4.8910   -9.1370 C.2   123  ASN123      0.2292
     15  O         60.5980    3.9950   -9.8240 O.2   123  ASN123     -0.2864
     16  CB        63.5820    5.3860   -9.4830 C.3   123  ASN123      0.1181
     17  CG        64.0430    4.4720  -10.6100 C.2   123  ASN123      0.2629
     18  OD1       63.2730    3.6400  -11.1190 O.2   123  ASN123     -0.2716
     19  ND2       65.3210    4.6430  -11.0130 N.am  123  ASN123     -0.0877
     20  N         58.9780    6.4440  -11.3890 N.3   125  THR125     -0.1203
     21  CA        58.4190    6.4200  -12.7430 C.3   125  THR125      0.1994
     22  C         59.4620    6.0420  -13.7810 C.2   125  THR125      0.2618
     23  O         60.6060    6.5040  -13.7300 O.2   125  THR125     -0.2717
     24  CB        57.8130    7.7830  -13.1310 C.3   125  THR125      0.1784
     25  OG1       58.7250    8.8330  -12.7640 O.3   125  THR125     -0.2211
     26  CG2       56.4650    7.9930  -12.4310 C.3   125  THR125      0.0376
     27  N         59.0370    5.2050  -14.7250 N.am  126  ASN126     -0.1960
     28  CA        59.9060    4.6980  -15.7700 C.3   126  ASN126      0.1819
     29  C         60.2700    5.8060  -16.7340 C.2   126  ASN126      0.2621
     30  O         59.4550    6.2020  -17.5680 O.2   126  ASN126     -0.2715
     31  CB        59.2190    3.5530  -16.5100 C.3   126  ASN126      0.1195
     32  CG        60.1870    2.7250  -17.3300 C.2   126  ASN126      0.2630
     33  OD1       61.3130    3.1510  -17.6180 O.2   126  ASN126     -0.2716
     34  ND2       59.7510    1.5280  -17.7160 N.am  126  ASN126     -0.0877
     35  N         61.5060    6.2850  -16.6040 N.am  127  ALA127     -0.1963
     36  CA        62.0130    7.4530  -17.3340 C.3   127  ALA127      0.1728
     37  C         61.6960    7.4670  -18.8270 C.2   127  ALA127      0.2616
     38  O         61.2370    8.4770  -19.3620 O.2   127  ALA127     -0.2715
     39  CB        63.5080    7.5990  -17.1180 C.3   127  ALA127      0.0334
     40  N         61.9430    6.3440  -19.4900 N.am  128  GLU128     -0.1977
     41  CA        61.7430    6.2320  -20.9300 C.3   128  GLU128      0.1602
     42  C         60.2790    6.0040  -21.3180 C.2   128  GLU128      0.2287
     43  O         59.7770    6.6430  -22.2440 O.2   128  GLU128     -0.2864
     44  CB        62.6640    5.1560  -21.5100 C.3   128  GLU128      0.0415
     45  CG        62.9080    3.9770  -20.5500 C.3   128  GLU128      0.1163
     46  CD        64.2490    3.2750  -20.7930 C.2   128  GLU128      0.3649
     47  OE1       64.5700    2.9510  -21.9650 O.co2 128  GLU128     -0.2457
     48  OE2       64.9780    3.0310  -19.7990 O.co2 128  GLU128     -0.2457
     49  N         67.4740    9.1280  -21.1800 N.3   137  VAL137     -0.1245
     50  CA        67.7180    9.6170  -19.8270 C.3   137  VAL137      0.1561
     51  C         68.9210   10.5370  -19.9310 C.2   137  VAL137      0.2260
     52  O         70.0670   10.0900  -19.9640 O.2   137  VAL137     -0.2867
     53  CB        67.9720    8.4740  -18.8060 C.3   137  VAL137      0.0252
     54  CG1       68.1720    9.0330  -17.3980 C.3   137  VAL137      0.0019
     55  CG2       66.8250    7.4650  -18.8220 C.3   137  VAL137      0.0019
     56  N         70.0570   11.2460   -8.6620 N.3   154  ALA154     -0.1245
     57  CA        69.2310   10.0440   -8.5390 C.3   154  ALA154      0.1562
     58  C         67.7630   10.4110   -8.3570 C.2   154  ALA154      0.2260
     59  O         66.8620    9.6440   -8.6980 O.2   154  ALA154     -0.2867
     60  CB        69.7020    9.2130   -7.3800 C.3   154  ALA154      0.0290
     61  N         65.8470   12.5770   -9.9100 N.3   156  MET156     -0.1230
     62  CA        65.0130   12.8360  -11.0800 C.3   156  MET156      0.1702
     63  C         65.7380   12.5470  -12.4030 C.2   156  MET156      0.2592
     64  O         66.9690   12.4990  -12.4520 O.2   156  MET156     -0.2718
     65  CB        64.5130   14.2810  -11.0360 C.3   156  MET156      0.0401
     66  CG        65.6290   15.2870  -10.8630 C.3   156  MET156      0.0596
     67  SD        65.1220   16.7390   -9.9520 S.3   156  MET156     -0.1393
     68  CE        66.7170   17.1870   -9.2350 C.3   156  MET156      0.0692
     69  N         64.9660   12.3550  -13.4670 N.am  157  ALA157     -0.1980
     70  CA        65.5250   12.0410  -14.7740 C.3   157  ALA157      0.1597
     71  C         65.4520   13.2370  -15.7040 C.2   157  ALA157      0.2287
     72  O         64.4290   13.9110  -15.7880 O.2   157  ALA157     -0.2864
     73  CB        64.8070   10.8620  -15.3870 C.3   157  ALA157      0.0319
     74  N         62.6310   10.3680   -9.8860 N.3   268  GLN268     -0.1231
     75  CA        63.1630    9.0230   -9.9390 C.3   268  GLN268      0.1698
     76  C         63.2080    8.4200   -8.5580 C.2   268  GLN268      0.2592
     77  O         62.1690    8.0470   -8.0100 O.2   268  GLN268     -0.2718
     78  CB        64.5400    9.0080  -10.5940 C.3   268  GLN268      0.0381
     79  CG        64.5230    9.3600  -12.0600 C.3   268  GLN268      0.0905
     80  CD        63.6530    8.4400  -12.9010 C.2   268  GLN268      0.2608
     81  OE1       64.0370    8.0720  -14.0010 O.2   268  GLN268     -0.2717
     82  NE2       62.4760    8.0720  -12.3930 N.am  268  GLN268     -0.0878
     83  N         64.4200    8.3040   -8.0140 N.am  269  LYS269     -0.1980
     84  CA        64.6270    7.8980   -6.6310 C.3   269  LYS269      0.1596
     85  C         63.9550    8.9420   -5.7510 C.2   269  LYS269      0.2287
     86  O         64.1630   10.1550   -5.9150 O.2   269  LYS269     -0.2864
     87  CB        66.1220    7.7850   -6.3150 C.3   269  LYS269      0.0298
     88  CG        66.8280    6.6220   -7.0210 C.3   269  LYS269      0.0038
     89  CD        66.5450    5.3060   -6.2970 C.3   269  LYS269      0.0206
     90  CE        66.9480    4.0800   -7.1020 C.3   269  LYS269      0.1093
     91  NZ        66.5880    2.8420   -6.3490 N.3   269  LYS269     -0.1314
@<TRIPOS>BOND
     1    43    42    2
     2    47    46   ar
     3    44    41    1
     4    44    45    1
     5    42    41    1
     6    49    50    1
     7    41    40    1
     8    46    45    1
     9    46    48   ar
    10    52    51    2
    11    51    50    1
    12    50    53    1
    13    40    37   am
    14    38    37    2
    15    37    36    1
    16    55    53    1
    17    53    54    1
    18    34    32   am
    19    33    32    2
    20    30    29    2
    21    36    39    1
    22    36    35    1
    23    32    31    1
    24    29    35   am
    25    29    28    1
    26    31    28    1
    27    72    71    2
    28    28    27    1
    29    71    70    1
    30    73    70    1
    31    70    69    1
    32    27    22   am
    33    81    80    2
    34    22    23    2
    35    22    21    1
    36    69    63   am
    37    24    25    1
    38    24    21    1
    39    24    26    1
    40    80    82   am
    41    80    79    1
    42    21    20    1
    43    64    63    2
    44    63    62    1
    45    79    78    1
    46    18    17    2
    47    62    65    1
    48    62    61    1
    49    65    66    1
    50    19    17   am
    51    66    67    1
    52    11     9    1
    53    17    16    1
    54    78    75    1
    55    67    68    1
    56    75    74    1
    57    75    76    1
    58    15    14    2
    59    16    13    1
    60     9     8    2
    61     9    10    1
    62     8     7    1
    63    14    13    1
    64    59    58    2
    65    56    57    1
    66    13    12    1
    67    76    83   am
    68    76    77    2
    69    57    58    1
    70    57    60    1
    71    12     3   am
    72    83    84    1
    73     7     6    1
    74     6     5    1
    75    90    91    1
    76    90    89    1
    77    88    87    1
    78    88    89    1
    79     3     2    1
    80     3     4    2
    81    84    87    1
    82    84    85    1
    83     5     2    1
    84     2     1    1
    85    86    85    2
