@<TRIPOS>MOLECULE
tmp/3bt9C00.pdb
 212 203 0 0 0
SMALL
GASTEIGER

@<TRIPOS>ATOM
      1  N        -59.6280  -48.5510   11.4530 N.3    53  LEU53      -0.1245
      2  CA       -60.6400  -47.7030   10.8400 C.3    53  LEU53       0.1561
      3  C        -60.3200  -46.2060   10.9480 C.2    53  LEU53       0.2260
      4  O        -60.4970  -45.4680    9.9660 O.2    53  LEU53      -0.2867
      5  CB       -62.0050  -48.0010   11.4640 C.3    53  LEU53       0.0270
      6  CG       -63.0340  -48.6670   10.5440 C.3    53  LEU53       0.0019
      7  CD1      -62.4010  -49.7120    9.6660 C.3    53  LEU53       0.0001
      8  CD2      -64.1080  -49.2970   11.3820 C.3    53  LEU53       0.0001
      9  N        -57.6500  -45.4720    8.5320 N.3    56  GLN56      -0.1231
     10  CA       -58.1680  -45.4430    7.1750 C.3    56  GLN56       0.1698
     11  C        -58.9060  -44.1340    6.8770 C.2    56  GLN56       0.2592
     12  O        -58.8210  -43.6190    5.7660 O.2    56  GLN56      -0.2718
     13  CB       -59.1130  -46.6160    6.9200 C.3    56  GLN56       0.0381
     14  CG       -58.4900  -48.0060    6.9900 C.3    56  GLN56       0.0905
     15  CD       -57.4090  -48.2370    5.9540 C.2    56  GLN56       0.2608
     16  OE1      -57.6170  -48.0400    4.7470 O.2    56  GLN56      -0.2717
     17  NE2      -56.2440  -48.6780    6.4210 N.am   56  GLN56      -0.0878
     18  N        -59.6230  -43.5820    7.8550 N.am   57  GLU57      -0.1979
     19  CA       -60.3580  -42.3340    7.6190 C.3    57  GLU57       0.1602
     20  C        -59.3660  -41.2130    7.3760 C.2    57  GLU57       0.2287
     21  O        -59.6090  -40.3390    6.5340 O.2    57  GLU57      -0.2864
     22  CB       -61.2830  -41.9930    8.8110 C.3    57  GLU57       0.0415
     23  CG       -62.2710  -40.8020    8.6160 C.3    57  GLU57       0.1163
     24  CD       -63.2900  -40.9780    7.4480 C.2    57  GLU57       0.3649
     25  OE1      -64.0960  -41.9540    7.4660 O.co2  57  GLU57      -0.2457
     26  OE2      -63.2970  -40.1260    6.5140 O.co2  57  GLU57      -0.2457
     27  N        -56.4630  -41.5050    6.0370 N.3    59  LYS59      -0.1231
     28  CA       -55.9270  -41.6900    4.7130 C.3    59  LYS59       0.1693
     29  C        -56.9320  -41.1390    3.7110 C.2    59  LYS59       0.2592
     30  O        -56.5590  -40.4570    2.7490 O.2    59  LYS59      -0.2718
     31  CB       -55.6620  -43.1740    4.4400 C.3    59  LYS59       0.0285
     32  CG       -54.4640  -43.7340    5.1750 C.3    59  LYS59       0.0035
     33  CD       -54.2390  -45.2060    4.8350 C.3    59  LYS59       0.0206
     34  CE       -52.9660  -45.7620    5.4970 C.3    59  LYS59       0.1093
     35  NZ       -52.7920  -47.2550    5.3530 N.3    59  LYS59      -0.1314
     36  N        -58.2110  -41.4300    3.9450 N.am   60  TRP60      -0.1976
     37  CA       -59.2760  -40.9720    3.0570 C.3    60  TRP60       0.1640
     38  C        -59.2550  -39.4520    2.9630 C.2    60  TRP60       0.2290
     39  O        -59.2710  -38.8850    1.8680 O.2    60  TRP60      -0.2864
     40  CB       -60.6410  -41.4700    3.5670 C.3    60  TRP60       0.0576
     41  CG       -61.8560  -40.9330    2.8060 C.ar   60  TRP60       0.0006
     42  CD1      -62.8650  -40.1540    3.3120 C.ar   60  TRP60       0.0946
     43  CD2      -62.1660  -41.1310    1.4210 C.ar   60  TRP60       0.0152
     44  NE1      -63.7750  -39.8580    2.3290 N.ar   60  TRP60      -0.2442
     45  CE2      -63.3700  -40.4430    1.1590 C.ar   60  TRP60       0.0810
     46  CE3      -61.5410  -41.8220    0.3740 C.ar   60  TRP60       0.0012
     47  CZ2      -63.9600  -40.4260   -0.1070 C.ar   60  TRP60       0.0191
     48  CZ3      -62.1270  -41.8030   -0.8840 C.ar   60  TRP60       0.0001
     49  CH2      -63.3230  -41.1080   -1.1130 C.ar   60  TRP60       0.0015
     50  N        -56.4880  -38.1810    0.9680 N.3    63  GLN63      -0.1245
     51  CA       -56.8190  -38.4700   -0.4210 C.3    63  GLN63       0.1566
     52  C        -57.7840  -37.3750   -0.8950 C.2    63  GLN63       0.2260
     53  O        -57.5780  -36.7620   -1.9490 O.2    63  GLN63      -0.2867
     54  CB       -57.4980  -39.8510   -0.5470 C.3    63  GLN63       0.0367
     55  CG       -56.5590  -41.0760   -0.7140 C.3    63  GLN63       0.0905
     56  CD       -57.3090  -42.4470   -0.6880 C.2    63  GLN63       0.2608
     57  OE1      -58.3340  -42.6250   -1.3680 O.2    63  GLN63      -0.2717
     58  NE2      -56.7830  -43.4130    0.0890 N.am   63  GLN63      -0.0878
     59  N        -67.0040  -41.5930   -3.7440 N.3    85  SER85      -0.1217
     60  CA       -67.5010  -42.5370   -2.7260 C.3    85  SER85       0.1889
     61  C        -67.9180  -43.8620   -3.3640 C.2    85  SER85       0.2288
     62  O        -67.7030  -44.9310   -2.8120 O.2    85  SER85      -0.2866
     63  CB       -68.7370  -41.9820   -2.0130 C.3    85  SER85       0.2089
     64  OG       -68.5290  -40.7240   -1.4120 O.3    85  SER85      -0.2183
     65  N        -64.4920  -45.6340   -5.5210 N.3    88  THR88      -0.1203
     66  CA       -63.4440  -46.1630   -4.6510 C.3    88  THR88       0.1994
     67  C        -63.9580  -47.3260   -3.8170 C.2    88  THR88       0.2617
     68  O        -63.2940  -48.3610   -3.6750 O.2    88  THR88      -0.2717
     69  CB       -62.9080  -45.1040   -3.6890 C.3    88  THR88       0.1784
     70  OG1      -64.0040  -44.5270   -2.9860 O.3    88  THR88      -0.2211
     71  CG2      -62.1720  -44.0200   -4.4190 C.3    88  THR88       0.0376
     72  N        -65.1450  -47.1500   -3.2560 N.am   89  GLU89      -0.1979
     73  CA       -65.7590  -48.1760   -2.4240 C.3    89  GLU89       0.1602
     74  C        -65.9940  -49.5040   -3.1730 C.2    89  GLU89       0.2287
     75  O        -66.0680  -50.5640   -2.5660 O.2    89  GLU89      -0.2864
     76  CB       -67.0620  -47.6090   -1.8450 C.3    89  GLU89       0.0415
     77  CG       -68.2440  -48.5380   -1.8650 C.3    89  GLU89       0.1163
     78  CD       -68.1930  -49.5660   -0.7690 C.2    89  GLU89       0.3649
     79  OE1      -68.9820  -50.5480   -0.8390 O.co2  89  GLU89      -0.2457
     80  OE2      -67.3650  -49.3790    0.1600 O.co2  89  GLU89      -0.2457
     81  N        -63.9510  -51.0750   -5.0710 N.3    91  TYR91      -0.1227
     82  CA       -62.7750  -51.9110   -4.9730 C.3    91  TYR91       0.1736
     83  C        -61.9710  -51.7180   -3.6820 C.2    91  TYR91       0.2595
     84  O        -60.7690  -51.9790   -3.6420 O.2    91  TYR91      -0.2718
     85  CB       -61.9110  -51.6880   -6.2310 C.3    91  TYR91       0.0548
     86  CG       -61.4480  -50.2690   -6.4240 C.ar   91  TYR91      -0.0200
     87  CD1      -60.4190  -49.7490   -5.6380 C.ar   91  TYR91      -0.0009
     88  CD2      -62.0370  -49.4320   -7.3730 C.ar   91  TYR91      -0.0009
     89  CE1      -59.9820  -48.4290   -5.7860 C.ar   91  TYR91       0.0417
     90  CE2      -61.6060  -48.1070   -7.5300 C.ar   91  TYR91       0.0417
     91  CZ       -60.5710  -47.6180   -6.7240 C.ar   91  TYR91       0.1957
     92  OH       -60.0970  -46.3290   -6.8330 O.3    91  TYR91      -0.2866
     93  N        -62.6450  -51.2680   -2.6260 N.am   92  TYR92      -0.1976
     94  CA       -62.0060  -51.0630   -1.3270 C.3    92  TYR92       0.1639
     95  C        -62.0340  -52.4240   -0.6850 C.2    92  TYR92       0.2290
     96  O        -63.0980  -52.9420   -0.3460 O.2    92  TYR92      -0.2864
     97  CB       -62.8130  -50.0790   -0.4840 C.3    92  TYR92       0.0560
     98  CG       -62.1900  -49.7160    0.8420 C.ar   92  TYR92      -0.0198
     99  CD1      -62.9560  -49.6600    2.0060 C.ar   92  TYR92      -0.0009
    100  CD2      -60.8460  -49.3750    0.9260 C.ar   92  TYR92      -0.0009
    101  CE1      -62.3940  -49.2680    3.2190 C.ar   92  TYR92       0.0417
    102  CE2      -60.2750  -48.9860    2.1290 C.ar   92  TYR92       0.0417
    103  CZ       -61.0490  -48.9340    3.2670 C.ar   92  TYR92       0.1957
    104  OH       -60.4620  -48.5460    4.4450 O.3    92  TYR92      -0.2866
    105  N        -64.0600  -53.2080    2.7360 N.3    95  GLN95      -0.1245
    106  CA       -65.4990  -53.0950    2.8430 C.3    95  GLN95       0.1566
    107  C        -66.1600  -54.3010    3.4510 C.2    95  GLN95       0.2260
    108  O        -67.0470  -54.1630    4.3010 O.2    95  GLN95      -0.2867
    109  CB       -66.1440  -52.7710    1.4940 C.3    95  GLN95       0.0367
    110  CG       -67.5000  -52.0560    1.6190 C.3    95  GLN95       0.0905
    111  CD       -67.4760  -50.8650    2.6120 C.2    95  GLN95       0.2608
    112  OE1      -66.6680  -49.9480    2.4780 O.2    95  GLN95      -0.2717
    113  NE2      -68.3690  -50.8900    3.6070 N.am   95  GLN95      -0.0878
    114  N        -65.6060  -54.4530    7.1850 N.3    98  ILE98      -0.1231
    115  CA       -66.4090  -53.4200    7.8180 C.3    98  ILE98       0.1692
    116  C        -67.8640  -53.8670    7.9760 C.2    98  ILE98       0.2591
    117  O        -68.4240  -53.7380    9.0510 O.2    98  ILE98      -0.2718
    118  CB       -66.3300  -52.1010    7.0040 C.3    98  ILE98       0.0266
    119  CG1      -64.8720  -51.6070    7.0090 C.3    98  ILE98       0.0019
    120  CG2      -67.2930  -51.0440    7.5880 C.3    98  ILE98       0.0020
    121  CD1      -64.5970  -50.4710    6.1130 C.3    98  ILE98       0.0001
    122  N        -68.4630  -54.4080    6.9150 N.am   99  ILE99      -0.1980
    123  CA       -69.8490  -54.8700    6.9590 C.3    99  ILE99       0.1595
    124  C        -69.9930  -55.8180    8.1240 C.2    99  ILE99       0.2287
    125  O        -70.8830  -55.6740    8.9530 O.2    99  ILE99      -0.2864
    126  CB       -70.2500  -55.6540    5.7000 C.3    99  ILE99       0.0276
    127  CG1      -69.7490  -54.9550    4.4310 C.3    99  ILE99       0.0022
    128  CG2      -71.7440  -55.8090    5.6710 C.3    99  ILE99       0.0022
    129  CD1      -70.3950  -53.6380    4.1400 C.3    99  ILE99       0.0001
    130  N        -69.7890  -54.0240   11.5990 N.3   102  TYR102     -0.1227
    131  CA       -70.9850  -53.3170   12.0320 C.3   102  TYR102      0.1736
    132  C        -72.0420  -54.2220   12.6010 C.2   102  TYR102      0.2596
    133  O        -72.4720  -54.0400   13.7360 O.2   102  TYR102     -0.2718
    134  CB       -71.6010  -52.5090   10.9020 C.3   102  TYR102      0.0548
    135  CG       -71.0880  -51.1170   10.9010 C.ar  102  TYR102     -0.0200
    136  CD1      -69.8990  -50.8030   10.2540 C.ar  102  TYR102     -0.0009
    137  CD2      -71.7310  -50.1210   11.6300 C.ar  102  TYR102     -0.0009
    138  CE1      -69.3460  -49.5300   10.3280 C.ar  102  TYR102      0.0417
    139  CE2      -71.1870  -48.8350   11.7200 C.ar  102  TYR102      0.0417
    140  CZ       -69.9900  -48.5470   11.0620 C.ar  102  TYR102      0.1957
    141  OH       -69.4470  -47.2770   11.1100 O.3   102  TYR102     -0.2866
    142  N        -72.4600  -55.2050   11.8120 N.am  103  THR103     -0.1953
    143  CA       -73.4970  -56.1050   12.2650 C.3   103  THR103      0.1897
    144  C        -73.0800  -56.7460   13.5780 C.2   103  THR103      0.2313
    145  O        -73.9120  -57.0410   14.4210 O.2   103  THR103     -0.2863
    146  CB       -73.8200  -57.1900   11.2010 C.3   103  THR103      0.1794
    147  OG1      -73.0930  -58.3840   11.4890 O.3   103  THR103     -0.2208
    148  CG2      -73.4450  -56.7020    9.8120 C.3   103  THR103      0.0378
    149  N        -73.3530  -54.0830   16.9330 N.3   106  TYR106     -0.1241
    150  CA       -74.4370  -53.1390   16.7760 C.3   106  TYR106      0.1605
    151  C        -75.2960  -53.0490   18.0350 C.2   106  TYR106      0.2264
    152  O        -75.7750  -51.9640   18.3830 O.2   106  TYR106     -0.2867
    153  CB       -75.2910  -53.4970   15.5600 C.3   106  TYR106      0.0534
    154  CG       -75.4540  -52.3110   14.6510 C.ar  106  TYR106     -0.0201
    155  CD1      -76.1640  -52.3990   13.4600 C.ar  106  TYR106     -0.0009
    156  CD2      -74.9040  -51.0780   15.0030 C.ar  106  TYR106     -0.0009
    157  CE1      -76.3240  -51.2780   12.6440 C.ar  106  TYR106      0.0417
    158  CE2      -75.0550  -49.9650   14.2050 C.ar  106  TYR106      0.0417
    159  CZ       -75.7650  -50.0650   13.0330 C.ar  106  TYR106      0.1957
    160  OH       -75.9280  -48.9340   12.2810 O.3   106  TYR106     -0.2866
    161  N        -66.2270  -41.4190   14.4330 N.3   118  LEU118     -0.1231
    162  CA       -65.8070  -41.9260   13.1420 C.3   118  LEU118      0.1693
    163  C        -66.7800  -41.5640   12.0270 C.2   118  LEU118      0.2591
    164  O        -66.3940  -40.9560   11.0350 O.2   118  LEU118     -0.2718
    165  CB       -65.6420  -43.4390   13.2410 C.3   118  LEU118      0.0284
    166  CG       -64.7600  -44.1910   12.2520 C.3   118  LEU118      0.0019
    167  CD1      -63.3760  -43.5740   12.1890 C.3   118  LEU118      0.0001
    168  CD2      -64.6970  -45.6420   12.6890 C.3   118  LEU118      0.0001
    169  N        -68.0410  -41.9440   12.1790 N.am  119  GLU119     -0.1979
    170  CA       -69.0430  -41.6200   11.1670 C.3   119  GLU119      0.1602
    171  C        -69.1820  -40.1060   11.0950 C.2   119  GLU119      0.2287
    172  O        -69.3980  -39.5500   10.0240 O.2   119  GLU119     -0.2864
    173  CB       -70.3860  -42.2640   11.5250 C.3   119  GLU119      0.0415
    174  CG       -70.2260  -43.6890   12.0370 C.3   119  GLU119      0.1163
    175  CD       -71.5160  -44.3120   12.5630 C.2   119  GLU119      0.3649
    176  OE1      -72.3500  -43.5820   13.1520 O.co2 119  GLU119     -0.2457
    177  OE2      -71.6800  -45.5460   12.4110 O.co2 119  GLU119     -0.2457
    178  N        -66.9320  -38.8160    8.5990 N.3   122  TYR122     -0.1241
    179  CA       -67.3720  -39.0260    7.2200 C.3   122  TYR122      0.1605
    180  C        -68.2800  -37.8840    6.8000 C.2   122  TYR122      0.2264
    181  O        -68.1420  -37.3260    5.7090 O.2   122  TYR122     -0.2867
    182  CB       -68.1530  -40.3440    7.0570 C.3   122  TYR122      0.0534
    183  CG       -68.7120  -40.5160    5.6510 C.ar  122  TYR122     -0.0201
    184  CD1      -67.8640  -40.4040    4.5360 C.ar  122  TYR122     -0.0009
    185  CD2      -70.0870  -40.7390    5.4220 C.ar  122  TYR122     -0.0009
    186  CE1      -68.3500  -40.5010    3.2230 C.ar  122  TYR122      0.0417
    187  CE2      -70.5960  -40.8400    4.0910 C.ar  122  TYR122      0.0417
    188  CZ       -69.7100  -40.7150    2.9930 C.ar  122  TYR122      0.1957
    189  OH       -70.1500  -40.7840    1.6700 O.3   122  TYR122     -0.2866
    190  N        -75.8700  -39.9650    4.2380 N.3   153  ASN153     -0.1240
    191  CA       -76.5330  -41.2540    4.2400 C.3   153  ASN153      0.1653
    192  C        -77.2800  -41.6250    2.9610 C.2   153  ASN153      0.2266
    193  O        -77.4150  -42.8090    2.6480 O.2   153  ASN153     -0.2867
    194  CB       -77.4410  -41.3770    5.4790 C.3   153  ASN153      0.1155
    195  CG       -76.6400  -41.5200    6.7720 C.2   153  ASN153      0.2627
    196  OD1      -75.8360  -42.4500    6.9290 O.2   153  ASN153     -0.2716
    197  ND2      -76.8470  -40.5970    7.6980 N.am  153  ASN153     -0.0877
    198  N        -74.5460  -43.0900    0.9310 N.3   156  ASN156     -0.1240
    199  CA       -74.1250  -44.4520    1.3230 C.3   156  ASN156      0.1653
    200  C        -75.0870  -45.4520    0.7150 C.2   156  ASN156      0.2266
    201  O        -74.6940  -46.5250    0.2640 O.2   156  ASN156     -0.2867
    202  CB       -74.1390  -44.7200    2.8450 C.3   156  ASN156      0.1155
    203  CG       -73.3920  -43.6760    3.6640 C.2   156  ASN156      0.2627
    204  OD1      -72.4550  -43.0240    3.1800 O.2   156  ASN156     -0.2716
    205  ND2      -73.7920  -43.5260    4.9330 N.am  156  ASN156     -0.0877
    206  N        -74.2060  -48.4430   -1.5530 N.3   160  THR160     -0.1218
    207  CA       -74.4260  -49.7860   -1.0190 C.3   160  THR160      0.1862
    208  C        -75.4930  -50.6800   -1.6470 C.2   160  THR160      0.2287
    209  O        -75.2550  -51.8540   -1.9090 O.2   160  THR160     -0.2866
    210  CB       -74.7970  -49.7320    0.4610 C.3   160  THR160      0.1770
    211  OG1      -73.8710  -48.9130    1.1590 O.3   160  THR160     -0.2211
    212  CG2      -74.7990  -51.1160    1.0620 C.3   160  THR160      0.0375
@<TRIPOS>BOND
     1    90    88   ar
     2    90    91   ar
     3    88    86   ar
     4    92    91    1
     5    91    89   ar
     6    86    85    1
     7    86    87   ar
     8    85    82    1
     9    89    87   ar
    10    65    66    1
    11    81    82    1
    12    82    83    1
    13    66    67    1
    14    66    69    1
    15    71    69    1
    16    67    68    2
    17    67    72   am
    18    59    60    1
    19    69    70    1
    20    83    84    2
    21    83    93   am
    22    61    62    2
    23    61    60    1
    24    72    73    1
    25    74    75    2
    26    74    73    1
    27    60    63    1
    28    93    94    1
    29    73    76    1
    30    63    64    1
    31    53    52    2
    32   209   208    2
    33    77    76    1
    34    77    78    1
    35   208   207    1
    36   206   207    1
    37    57    56    2
    38    94    95    1
    39    94    97    1
    40    49    48   ar
    41    49    47   ar
    42   207   210    1
    43    52    51    1
    44    48    46   ar
    45    79    78   ar
    46    78    80   ar
    47    55    56    1
    48    55    54    1
    49    56    58   am
    50    95    96    2
    51    54    51    1
    52    97    98    1
    53    51    50    1
    54    47    45   ar
    55   201   200    2
    56    46    43   ar
    57   210   212    1
    58   210   211    1
    59   200   199    1
    60    98   100   ar
    61    98    99   ar
    62   100   102   ar
    63   198   199    1
    64    45    43   ar
    65    45    44   ar
    66   199   202    1
    67    43    41   ar
    68   109   110    1
    69   109   106    1
    70   110   111    1
    71   189   188    1
    72    39    38    2
    73    99   101   ar
    74   102   103   ar
    75    44    42   ar
    76   112   111    2
    77   111   113   am
    78   193   192    2
    79   105   106    1
    80    30    29    2
    81    41    42   ar
    82    41    40    1
    83   106   107    1
    84   202   203    1
    85   192   191    1
    86    38    37    1
    87   188   186   ar
    88   188   187   ar
    89    37    40    1
    90    37    36    1
    91   204   203    2
    92   101   103   ar
    93   186   184   ar
    94   103   104    1
    95   107   108    2
    96   203   205   am
    97    29    36   am
    98    29    28    1
    99   187   185   ar
   100   129   127    1
   101   190   191    1
   102   191   194    1
   103   127   126    1
   104    31    28    1
   105    31    32    1
   106   184   183   ar
   107    28    27    1
   108    16    15    2
   109    33    32    1
   110    33    34    1
   111    35    34    1
   112   185   183   ar
   113   194   195    1
   114   183   182    1
   115   128   126    1
   116   126   123    1
   117   181   180    2
   118    12    11    2
   119    15    17   am
   120    15    14    1
   121   121   119    1
   122    26    24   ar
   123    21    20    2
   124   195   196    2
   125   195   197   am
   126   180   179    1
   127    11    10    1
   128    11    18   am
   129   122   123    1
   130   122   116   am
   131    13    14    1
   132    13    10    1
   133   123   124    1
   134   118   119    1
   135   118   120    1
   136   118   115    1
   137   182   179    1
   138    10     9    1
   139   114   115    1
   140   179   178    1
   141    20    19    1
   142    24    25   ar
   143    24    23    1
   144    19    18    1
   145    19    22    1
   146   115   116    1
   147   116   117    2
   148   124   125    2
   149    23    22    1
   150     7     6    1
   151   148   146    1
   152     4     3    2
   153   172   171    2
   154   136   138   ar
   155   136   135   ar
   156   138   140   ar
   157     6     8    1
   158     6     5    1
   159     2     3    1
   160     2     1    1
   161     2     5    1
   162   135   134    1
   163   135   137   ar
   164   134   131    1
   165   164   163    2
   166   140   141    1
   167   140   139   ar
   168   171   170    1
   169   170   173    1
   170   170   169    1
   171   146   147    1
   172   146   143    1
   173   173   174    1
   174   130   131    1
   175   137   139   ar
   176   142   143    1
   177   142   132   am
   178   163   169   am
   179   163   162    1
   180   131   132    1
   181   174   175    1
   182   167   166    1
   183   166   168    1
   184   166   165    1
   185   143   144    1
   186   160   159    1
   187   177   175   ar
   188   175   176   ar
   189   132   133    2
   190   157   159   ar
   191   157   155   ar
   192   159   158   ar
   193   162   165    1
   194   162   161    1
   195   155   154   ar
   196   144   145    2
   197   158   156   ar
   198   154   156   ar
   199   154   153    1
   200   153   150    1
   201   150   149    1
   202   150   151    1
   203   151   152    2
