@<TRIPOS>MOLECULE
tmp/3bu1A00.pdb
 104 97 0 0 0
SMALL
GASTEIGER

@<TRIPOS>ATOM
      1  N         21.4140   18.3430    9.6650 N.3     9  SER9       -0.1202
      2  CA        20.2880   19.1160    9.1180 C.3     9  SER9        0.2020
      3  C         20.4910   20.6240    9.2810 C.2     9  SER9        0.2618
      4  O         20.3620   21.3870    8.3250 O.2     9  SER9       -0.2717
      5  CB        18.9810   18.7080    9.7950 C.3     9  SER9        0.2103
      6  OG        17.9130   19.5400    9.3780 O.3     9  SER9       -0.2182
      7  N         20.8030   21.0500   10.5020 N.am   10  LEU10      -0.1979
      8  CA        21.0230   22.4670   10.8000 C.3    10  LEU10       0.1596
      9  C         22.1030   23.0540    9.8740 C.2    10  LEU10       0.2287
     10  O         21.9010   24.0800    9.2180 O.2    10  LEU10      -0.2864
     11  CB        21.4260   22.6140   12.2680 C.3    10  LEU10       0.0297
     12  CG        21.4700   24.0100   12.8990 C.3    10  LEU10       0.0022
     13  CD1       21.5530   23.8730   14.4070 C.3    10  LEU10       0.0001
     14  CD2       22.6400   24.8600   12.3810 C.3    10  LEU10       0.0001
     15  N         17.7890   28.1300    4.0930 N.3    18  TYR18      -0.1241
     16  CA        16.5930   27.3350    3.8510 C.3    18  TYR18       0.1605
     17  C         15.3400   28.1790    3.8810 C.2    18  TYR18       0.2264
     18  O         15.1520   28.9900    4.7970 O.2    18  TYR18      -0.2867
     19  CB        16.4710   26.2110    4.8840 C.3    18  TYR18       0.0534
     20  CG        17.4860   25.1060    4.7040 C.ar   18  TYR18      -0.0201
     21  CD1       17.1230   23.8790    4.1320 C.ar   18  TYR18      -0.0009
     22  CD2       18.8150   25.2790    5.1050 C.ar   18  TYR18      -0.0009
     23  CE1       18.0640   22.8600    3.9690 C.ar   18  TYR18       0.0417
     24  CE2       19.7550   24.2650    4.9440 C.ar   18  TYR18       0.0417
     25  CZ        19.3730   23.0690    4.3720 C.ar   18  TYR18       0.1957
     26  OH        20.3040   22.0710    4.2210 O.3    18  TYR18      -0.2866
     27  N         15.3920   30.4950    7.2560 N.3    34  VAL34      -0.1245
     28  CA        16.4870   30.4970    8.2280 C.3    34  VAL34       0.1561
     29  C         17.7950   30.3570    7.4520 C.2    34  VAL34       0.2260
     30  O         17.8330   29.7670    6.3650 O.2    34  VAL34      -0.2867
     31  CB        16.3740   29.3540    9.2830 C.3    34  VAL34       0.0252
     32  CG1       15.1030   29.4910   10.1200 C.3    34  VAL34       0.0019
     33  CG2       16.4760   27.9650    8.6240 C.3    34  VAL34       0.0019
     34  N         21.9990   31.5790   13.7600 N.3    48  TYR48      -0.1241
     35  CA        20.8810   31.5960   12.8190 C.3    48  TYR48       0.1605
     36  C         20.4650   33.0300   12.5490 C.2    48  TYR48       0.2264
     37  O         20.3420   33.8400   13.4740 O.2    48  TYR48      -0.2867
     38  CB        19.6730   30.8330   13.3740 C.3    48  TYR48       0.0534
     39  CG        19.3870   29.4890   12.7290 C.ar   48  TYR48      -0.0201
     40  CD1       20.4150   28.6890   12.2210 C.ar   48  TYR48      -0.0009
     41  CD2       18.0790   29.0020   12.6650 C.ar   48  TYR48      -0.0009
     42  CE1       20.1480   27.4440   11.6470 C.ar   48  TYR48       0.0417
     43  CE2       17.7960   27.7610   12.0890 C.ar   48  TYR48       0.0417
     44  CZ        18.8320   26.9850   11.5860 C.ar   48  TYR48       0.1957
     45  OH        18.5450   25.7670   11.0190 O.3    48  TYR48      -0.2866
     46  N         16.4930   20.8190   16.4060 N.3    73  ILE73      -0.1245
     47  CA        17.1740   22.0830   16.1630 C.3    73  ILE73       0.1561
     48  C         16.5460   23.1270   17.0800 C.2    73  ILE73       0.2260
     49  O         15.3300   23.3630   17.0480 O.2    73  ILE73      -0.2867
     50  CB        17.0670   22.5160   14.6820 C.3    73  ILE73       0.0252
     51  CG1       17.7760   21.4970   13.7770 C.3    73  ILE73       0.0019
     52  CG2       17.6430   23.9270   14.4890 C.3    73  ILE73       0.0019
     53  CD1       17.4800   21.6770   12.2900 C.3    73  ILE73       0.0001
     54  N         16.1910   26.9100   18.5060 N.3    75  VAL75      -0.1245
     55  CA        16.3460   28.3490   18.3030 C.3    75  VAL75       0.1561
     56  C         15.4140   29.0230   19.3030 C.2    75  VAL75       0.2260
     57  O         14.1940   28.9050   19.1960 O.2    75  VAL75      -0.2867
     58  CB        15.9900   28.7810   16.8560 C.3    75  VAL75       0.0252
     59  CG1       16.3280   30.2550   16.6370 C.3    75  VAL75       0.0019
     60  CG2       16.7070   27.9170   15.8190 C.3    75  VAL75       0.0019
     61  N         12.7410   22.2010   17.0680 N.3    80  SER80      -0.1217
     62  CA        12.2130   21.6010   15.8430 C.3    80  SER80       0.1889
     63  C         12.7610   20.1950   15.6770 C.2    80  SER80       0.2288
     64  O         13.9410   20.0150   15.3620 O.2    80  SER80      -0.2866
     65  CB        12.5580   22.4670   14.6290 C.3    80  SER80       0.2089
     66  OG        11.9460   23.7400   14.7330 O.3    80  SER80      -0.2183
     67  N         14.5430   19.4660    4.5590 N.3    91  ASP91      -0.1239
     68  CA        14.2540   18.9630    5.8990 C.3    91  ASP91       0.1674
     69  C         12.7540   18.8990    6.1080 C.2    91  ASP91       0.2266
     70  O         12.0150   19.7780    5.6450 O.2    91  ASP91      -0.2867
     71  CB        14.8210   19.8810    6.9910 C.3    91  ASP91       0.1410
     72  CG        16.1500   20.4870    6.6250 C.2    91  ASP91       0.3668
     73  OD1       17.1740   19.7840    6.7010 O.co2  91  ASP91      -0.2456
     74  OD2       16.1600   21.6830    6.2900 O.co2  91  ASP91      -0.2456
     75  N         10.5060   18.8200    9.5110 N.3    93  VAL93      -0.1245
     76  CA        10.5930   18.9830   10.9580 C.3    93  VAL93       0.1561
     77  C          9.2130   19.1670   11.5760 C.2    93  VAL93       0.2260
     78  O          8.2490   19.5170   10.8800 O.2    93  VAL93      -0.2867
     79  CB        11.5390   20.1570   11.3770 C.3    93  VAL93       0.0252
     80  CG1       12.9330   19.9800   10.7740 C.3    93  VAL93       0.0019
     81  CG2       10.9490   21.5170   10.9970 C.3    93  VAL93       0.0019
     82  N          6.5870   20.7860    8.9190 N.3   100  GLU100     -0.1245
     83  CA         7.2070   21.7830    8.0410 C.3   100  GLU100      0.1567
     84  C          8.1750   21.1310    7.0730 C.2   100  GLU100      0.2260
     85  O          8.9930   20.3190    7.4800 O.2   100  GLU100     -0.2867
     86  CB         7.9660   22.8290    8.8610 C.3   100  GLU100      0.0388
     87  CG         7.0990   23.6240    9.8270 C.3   100  GLU100      0.1160
     88  CD         7.9080   24.5650   10.6920 C.2   100  GLU100      0.3649
     89  OE1        9.1480   24.4000   10.7760 O.co2 100  GLU100     -0.2457
     90  OE2        7.2990   25.4730   11.2980 O.co2 100  GLU100     -0.2457
     91  N         11.1410   22.2410    4.6470 N.3   102  TRP102     -0.1241
     92  CA        12.1000   23.3120    4.3570 C.3   102  TRP102      0.1605
     93  C         12.9670   22.8920    3.1860 C.2   102  TRP102      0.2264
     94  O         13.3280   21.7210    3.0620 O.2   102  TRP102     -0.2867
     95  CB        13.0000   23.5780    5.5670 C.3   102  TRP102      0.0550
     96  CG        12.2700   24.1340    6.7570 C.ar  102  TRP102      0.0003
     97  CD1       11.4930   23.4410    7.6430 C.ar  102  TRP102      0.0946
     98  CD2       12.2570   25.5060    7.1990 C.ar  102  TRP102      0.0152
     99  NE1       10.9880   24.2930    8.6010 N.ar  102  TRP102     -0.2442
    100  CE2       11.4460   25.5620    8.3610 C.ar  102  TRP102      0.0810
    101  CE3       12.8570   26.6880    6.7330 C.ar  102  TRP102      0.0012
    102  CZ2       11.2110   26.7550    9.0640 C.ar  102  TRP102      0.0191
    103  CZ3       12.6250   27.8770    7.4290 C.ar  102  TRP102      0.0001
    104  CH2       11.8060   27.9000    8.5820 C.ar  102  TRP102      0.0015
@<TRIPOS>BOND
     1    94    93    2
     2    93    92    1
     3    16    17    1
     4    16    15    1
     5    16    19    1
     6    17    18    2
     7    23    21   ar
     8    23    25   ar
     9    21    20   ar
    10    26    25    1
    11    92    91    1
    12    92    95    1
    13    25    24   ar
    14    67    68    1
    15    20    19    1
    16    20    22   ar
    17    24    22   ar
    18    95    96    1
    19    70    69    2
    20    68    69    1
    21    68    71    1
    22    74    72   ar
    23    30    29    2
    24    72    73   ar
    25    72    71    1
    26   101    98   ar
    27   101   103   ar
    28    96    98   ar
    29    96    97   ar
    30    84    85    2
    31    84    83    1
    32    98   100   ar
    33    27    28    1
    34   103   104   ar
    35    29    28    1
    36    97    99   ar
    37    83    86    1
    38    83    82    1
    39    28    31    1
    40     4     3    2
    41   100    99   ar
    42   100   102   ar
    43   104   102   ar
    44    33    31    1
    45    86    87    1
    46     2     3    1
    47     2     1    1
    48     2     5    1
    49    10     9    2
    50     3     7   am
    51    31    32    1
    52     6     5    1
    53    75    76    1
    54    87    88    1
    55     9     8    1
    56     7     8    1
    57    88    89   ar
    58    88    90   ar
    59    80    79    1
    60     8    11    1
    61    78    77    2
    62    76    79    1
    63    76    77    1
    64    81    79    1
    65    45    44    1
    66    44    42   ar
    67    44    43   ar
    68    42    40   ar
    69    43    41   ar
    70    40    39   ar
    71    11    12    1
    72    53    51    1
    73    14    12    1
    74    36    35    1
    75    36    37    2
    76    41    39   ar
    77    39    38    1
    78    35    38    1
    79    35    34    1
    80    12    13    1
    81    51    50    1
    82    52    50    1
    83    65    66    1
    84    65    62    1
    85    50    47    1
    86    64    63    2
    87    63    62    1
    88    60    58    1
    89    62    61    1
    90    47    46    1
    91    47    48    1
    92    59    58    1
    93    58    55    1
    94    49    48    2
    95    55    54    1
    96    55    56    1
    97    57    56    2
