@<TRIPOS>MOLECULE
tmp/3bu5A01.pdb
 162 148 0 0 0
SMALL
GASTEIGER

@<TRIPOS>ATOM
      1  N        -10.1100    9.6590   22.9020 N.3    16  LEU16      -0.1231
      2  CA        -9.6520    8.2750   22.9280 C.3    16  LEU16       0.1693
      3  C         -8.8480    7.9590   24.1820 C.2    16  LEU16       0.2593
      4  O         -9.0140    6.8970   24.7810 O.2    16  LEU16      -0.2718
      5  CB        -8.8250    7.9430   21.6860 C.3    16  LEU16       0.0284
      6  CG        -9.5370    7.5030   20.4120 C.3    16  LEU16       0.0019
      7  CD1       -8.5400    7.4050   19.2700 C.3    16  LEU16       0.0001
      8  CD2      -10.2570    6.1770   20.6020 C.3    16  LEU16       0.0001
      9  N         -7.9690    8.8770   24.5690 N.am   17  GLY17      -0.1942
     10  CA        -7.0990    8.6450   25.7160 C.3    17  GLY17       0.2014
     11  C         -6.3000    9.8670   26.0860 C.2    17  GLY17       0.2638
     12  O         -5.7600   10.5440   25.2080 O.2    17  GLY17      -0.2714
     13  N         -6.2210   10.1400   27.3870 N.am   18  GLN18      -0.1977
     14  CA        -5.4860   11.3000   27.9040 C.3    18  GLN18       0.1601
     15  C         -3.9870   11.0220   28.0230 C.2    18  GLN18       0.2287
     16  O         -3.2170   11.3510   27.1130 O.2    18  GLN18      -0.2864
     17  CB        -6.0720   11.7770   29.2480 C.3    18  GLN18       0.0394
     18  CG        -5.3340   12.9700   29.8940 C.3    18  GLN18       0.0908
     19  CD        -5.3280   14.2320   29.0290 C.2    18  GLN18       0.2608
     20  OE1       -6.2950   14.9950   29.0220 O.2    18  GLN18      -0.2717
     21  NE2       -4.2270   14.4630   28.3150 N.am   18  GLN18      -0.0878
     22  N         -1.7290   16.0280   26.8940 N.3    19  GLY19      -0.1225
     23  CA        -2.2310   16.1190   25.5300 C.3    19  GLY19       0.1811
     24  C         -3.2780   15.0660   25.2210 C.2    19  GLY19       0.2280
     25  O         -3.0130   13.8670   25.2960 O.2    19  GLY19      -0.2866
     26  N         -5.4800   12.6480   23.0790 N.3    21  VAL21      -0.1245
     27  CA        -5.6350   11.9100   21.8180 C.3    21  VAL21       0.1561
     28  C         -7.1350   11.7390   21.5170 C.2    21  VAL21       0.2260
     29  O         -7.9090   11.3520   22.3860 O.2    21  VAL21      -0.2867
     30  CB        -4.9550   10.5230   21.8700 C.3    21  VAL21       0.0252
     31  CG1       -5.0930    9.7830   20.5220 C.3    21  VAL21       0.0019
     32  CG2       -3.4980   10.6600   22.2500 C.3    21  VAL21       0.0019
     33  N         -6.7410    8.7450   14.3110 N.3    39  ALA39      -0.1245
     34  CA        -6.4520    9.2520   15.6570 C.3    39  ALA39       0.1562
     35  C         -5.7180   10.6040   15.5490 C.2    39  ALA39       0.2260
     36  O         -4.8790   10.7950   14.6760 O.2    39  ALA39      -0.2867
     37  CB        -5.6410    8.2380   16.4640 C.3    39  ALA39       0.0290
     38  N         -3.5560   13.4050   17.8070 N.3    41  LYS41      -0.1245
     39  CA        -2.8300   13.7320   19.0350 C.3    41  LYS41       0.1561
     40  C         -2.5810   15.2510   19.0630 C.2    41  LYS41       0.2260
     41  O         -2.2580   15.8730   18.0350 O.2    41  LYS41      -0.2867
     42  CB        -1.5340   12.8900   19.1290 C.3    41  LYS41       0.0271
     43  CG        -0.9340   12.6900   20.5610 C.3    41  LYS41       0.0035
     44  CD         0.0050   11.4370   20.6620 C.3    41  LYS41       0.0206
     45  CE         0.6710   11.3420   22.0550 C.3    41  LYS41       0.1093
     46  NZ         1.6570   10.2010   22.2600 N.3    41  LYS41      -0.1314
     47  N          8.4850   14.2130   18.4670 N.3    58  GLU58      -0.1245
     48  CA         7.7590   12.9530   18.2460 C.3    58  GLU58       0.1567
     49  C          7.0970   12.8840   16.8630 C.2    58  GLU58       0.2260
     50  O          7.2190   11.8780   16.1550 O.2    58  GLU58      -0.2867
     51  CB         6.7230   12.7460   19.3510 C.3    58  GLU58       0.0388
     52  CG         5.9750   11.4260   19.2690 C.3    58  GLU58       0.1160
     53  CD         4.9960   11.2290   20.4140 C.2    58  GLU58       0.3649
     54  OE1        5.1430   11.9060   21.4570 O.co2  58  GLU58      -0.2457
     55  OE2        4.0690   10.3940   20.2740 O.co2  58  GLU58      -0.2457
     56  N          2.9850    2.2060   13.8760 N.3    71  VAL71      -0.1245
     57  CA         1.8770    3.1510   13.6680 C.3    71  VAL71       0.1561
     58  C          2.2470    4.2540   12.6820 C.2    71  VAL71       0.2260
     59  O          3.2490    4.9520   12.8530 O.2    71  VAL71      -0.2867
     60  CB         1.3810    3.7430   14.9760 C.3    71  VAL71       0.0252
     61  CG1        0.3040    4.8030   14.7100 C.3    71  VAL71       0.0019
     62  CG2        0.8070    2.6160   15.8610 C.3    71  VAL71       0.0019
     63  N         -2.7630   10.3910   12.8150 N.3    87  MET87      -0.1230
     64  CA        -2.2250    9.0670   12.5670 C.3    87  MET87       0.1702
     65  C         -3.2560    7.9640   12.3820 C.2    87  MET87       0.2592
     66  O         -4.4570    8.1550   12.6050 O.2    87  MET87      -0.2718
     67  CB        -1.1730    8.6930   13.6290 C.3    87  MET87       0.0401
     68  CG        -1.6750    8.5640   15.0350 C.3    87  MET87       0.0596
     69  SD        -0.2780    8.6290   16.1980 S.3    87  MET87      -0.1393
     70  CE         0.5690   10.0690   15.5660 C.3    87  MET87       0.0692
     71  N         -2.7360    6.8130   11.9600 N.am   88  GLU88      -0.1966
     72  CA        -3.4630    5.5820   11.7880 C.3    88  GLU88       0.1733
     73  C         -4.2620    5.3360   13.0600 C.2    88  GLU88       0.2616
     74  O         -3.7000    5.3310   14.1590 O.2    88  GLU88      -0.2715
     75  CB        -2.4460    4.4580   11.5890 C.3    88  GLU88       0.0429
     76  CG        -3.0180    3.1160   11.2200 C.3    88  GLU88       0.1163
     77  CD        -1.9600    2.0460   11.0440 C.2    88  GLU88       0.3649
     78  OE1       -2.3490    0.8850   10.8550 O.co2  88  GLU88      -0.2457
     79  OE2       -0.7460    2.3360   11.1010 O.co2  88  GLU88      -0.2457
     80  N         -5.5740    5.1890   12.9010 N.am   89  LEU89      -0.1963
     81  CA        -6.4380    4.8140   13.9980 C.3    89  LEU89       0.1728
     82  C         -6.2280    3.3330   14.3080 C.2    89  LEU89       0.2616
     83  O         -6.3190    2.4870   13.4140 O.2    89  LEU89      -0.2715
     84  CB        -7.9070    5.0620   13.6430 C.3    89  LEU89       0.0311
     85  CG        -8.9560    4.6470   14.6830 C.3    89  LEU89       0.0022
     86  CD1       -8.8810    5.5030   15.9580 C.3    89  LEU89       0.0001
     87  CD2      -10.3400    4.7220   14.0550 C.3    89  LEU89       0.0001
     88  N         -5.9530    3.0310   15.5740 N.am   90  MET90      -0.1977
     89  CA        -5.7820    1.6620   16.0140 C.3    90  MET90       0.1605
     90  C         -7.0280    1.2680   16.7810 C.2    90  MET90       0.2287
     91  O         -7.2440    1.6920   17.9200 O.2    90  MET90      -0.2864
     92  CB        -4.4920    1.5260   16.8350 C.3    90  MET90       0.0413
     93  CG        -3.2290    1.8900   16.0080 C.3    90  MET90       0.0598
     94  SD        -2.9550    0.7340   14.6470 S.3    90  MET90      -0.1393
     95  CE        -2.4680   -0.7380   15.5170 C.3    90  MET90       0.0692
     96  N         -7.0370    0.0670   20.4120 N.3    93  GLY93      -0.1210
     97  CA        -6.3060    0.8620   21.3870 C.3    93  GLY93       0.1956
     98  C         -4.9370    0.2460   21.6480 C.2    93  GLY93       0.2611
     99  O         -4.3570   -0.3840   20.7600 O.2    93  GLY93      -0.2717
    100  N         -4.4510    0.4300   22.8770 N.am   94  ASP94      -0.1973
    101  CA        -3.1520   -0.0600   23.3090 C.3    94  ASP94       0.1709
    102  C         -3.2340   -1.4980   23.8540 C.2    94  ASP94       0.2293
    103  O         -4.2560   -1.9190   24.4300 O.2    94  ASP94      -0.2864
    104  CB        -2.5260    0.8880   24.3570 C.3    94  ASP94       0.1436
    105  CG        -3.2120    0.8100   25.7210 C.2    94  ASP94       0.3671
    106  OD1       -4.2130    1.5300   25.9560 O.co2  94  ASP94      -0.2456
    107  OD2       -2.7290    0.0510   26.5820 O.co2  94  ASP94      -0.2456
    108  N         10.9000    3.3630   25.5170 N.3   143  ASP143     -0.1239
    109  CA         9.6790    3.1790   26.2940 C.3   143  ASP143      0.1674
    110  C          8.8120    2.0470   25.7180 C.2   143  ASP143      0.2266
    111  O          7.5760    2.1510   25.6730 O.2   143  ASP143     -0.2867
    112  CB         8.9200    4.5150   26.3860 C.3   143  ASP143      0.1410
    113  CG         7.8360    4.5170   27.4480 C.2   143  ASP143      0.3668
    114  OD1        7.8040    3.6090   28.3090 O.co2 143  ASP143     -0.2456
    115  OD2        6.9850    5.4420   27.4080 O.co2 143  ASP143     -0.2456
    116  N          1.5890   -0.8160   26.9160 N.3   147  ARG147     -0.1231
    117  CA         0.8460    0.4570   26.8160 C.3   147  ARG147      0.1694
    118  C          1.2200    1.2880   25.5890 C.2   147  ARG147      0.2592
    119  O          0.4590    2.1570   25.1790 O.2   147  ARG147     -0.2718
    120  CB         1.0210    1.2940   28.0810 C.3   147  ARG147      0.0321
    121  CG         2.3730    1.9840   28.1960 C.3   147  ARG147      0.0489
    122  CD         2.6010    2.6940   29.5520 C.3   147  ARG147      0.2205
    123  NE         4.0440    2.8560   29.7250 N.pl3 147  ARG147     -0.0865
    124  CZ         4.8490    1.9500   30.2880 C.cat 147  ARG147      0.5346
    125  NH1        4.3660    0.8260   30.8010 N.pl3 147  ARG147      0.1354
    126  NH2        6.1420    2.1760   30.3440 N.pl3 147  ARG147      0.1354
    127  N          2.3850    1.0090   25.0010 N.am  148  ASN148     -0.1974
    128  CA         2.8560    1.7320   23.8130 C.3   148  ASN148      0.1688
    129  C          2.8090    0.9230   22.5240 C.2   148  ASN148      0.2292
    130  O          3.2420    1.3840   21.4660 O.2   148  ASN148     -0.2864
    131  CB         4.2510    2.3050   24.0560 C.3   148  ASN148      0.1181
    132  CG         4.2120    3.4970   24.9570 C.2   148  ASN148      0.2629
    133  OD1        3.1870    4.1830   25.0290 O.2   148  ASN148     -0.2716
    134  ND2        5.3050    3.7450   25.6890 N.am  148  ASN148     -0.0877
    135  N          0.0760   -0.8460   19.9650 N.3   150  MET150     -0.1245
    136  CA        -1.3220   -0.5680   19.6040 C.3   150  MET150      0.1570
    137  C         -1.9110   -1.7270   18.8180 C.2   150  MET150      0.2261
    138  O         -1.1770   -2.4380   18.1490 O.2   150  MET150     -0.2867
    139  CB        -1.4130    0.7200   18.7700 C.3   150  MET150      0.0387
    140  CG        -0.7780    1.9460   19.4450 C.3   150  MET150      0.0595
    141  SD        -1.5120    2.3680   21.0350 S.3   150  MET150     -0.1393
    142  CE        -0.1620    3.3120   21.7530 C.3   150  MET150      0.0692
    143  N          3.8130    5.4270   20.1480 N.3   161  ASP161     -0.1239
    144  CA         4.3730    6.3550   21.1290 C.3   161  ASP161      0.1674
    145  C          5.8950    6.5340   21.1110 C.2   161  ASP161      0.2266
    146  O          6.6430    5.8680   21.8460 O.2   161  ASP161     -0.2867
    147  CB         3.8940    6.0050   22.5320 C.3   161  ASP161      0.1410
    148  CG         4.2590    7.0730   23.5540 C.2   161  ASP161      0.3668
    149  OD1        5.1130    7.9430   23.2610 O.co2 161  ASP161     -0.2456
    150  OD2        3.7080    7.0270   24.6720 O.co2 161  ASP161     -0.2456
    151  N          7.6210    9.1900   21.9480 N.3   163  GLY163     -0.1210
    152  CA         7.9810   10.2890   22.8490 C.3   163  GLY163      0.1956
    153  C          9.3870   10.2070   23.4310 C.2   163  GLY163      0.2611
    154  O         10.0290   11.2320   23.6220 O.2   163  GLY163     -0.2717
    155  N          9.8650    8.9910   23.6890 N.am  164  MET164     -0.1979
    156  CA        11.1940    8.7710   24.2640 C.3   164  MET164      0.1605
    157  C         12.2350    8.2960   23.2350 C.2   164  MET164      0.2287
    158  O         13.3940    8.0560   23.5770 O.2   164  MET164     -0.2864
    159  CB        11.0860    7.7850   25.4400 C.3   164  MET164      0.0413
    160  CG        10.4210    8.3860   26.6860 C.3   164  MET164      0.0598
    161  SD        10.4040    7.3560   28.1740 S.3   164  MET164     -0.1393
    162  CE        12.1660    7.1810   28.5110 C.3   164  MET164      0.0692
@<TRIPOS>BOND
     1    78    77   ar
     2    77    79   ar
     3    77    76    1
     4    76    75    1
     5    75    72    1
     6    72    71    1
     7    72    73    1
     8    71    65   am
     9    65    64    1
    10    65    66    2
    11    64    63    1
    12    64    67    1
    13    58    59    2
    14    58    57    1
    15    80    73   am
    16    80    81    1
    17    73    74    2
    18    83    82    2
    19    67    68    1
    20    84    81    1
    21    84    85    1
    22    57    56    1
    23    57    60    1
    24    81    82    1
    25    87    85    1
    26    82    88   am
    27    33    34    1
    28    94    95    1
    29    94    93    1
    30    36    35    2
    31    85    86    1
    32    61    60    1
    33    60    62    1
    34    68    69    1
    35    35    34    1
    36    70    69    1
    37    88    89    1
    38    34    37    1
    39    93    92    1
    40    89    90    1
    41    89    92    1
    42    50    49    2
    43    90    91    2
    44    49    48    1
    45    38    39    1
    46    41    40    2
    47   138   137    2
    48    48    47    1
    49    48    51    1
    50   139   140    1
    51   139   136    1
    52   137   136    1
    53    39    40    1
    54    39    42    1
    55    42    43    1
    56    52    51    1
    57    52    53    1
    58     7     6    1
    59   140   141    1
    60   136   135    1
    61   143   144    1
    62    55    53   ar
    63    96    97    1
    64     6     8    1
    65     6     5    1
    66    53    54   ar
    67    31    30    1
    68    43    44    1
    69    44    45    1
    70    99    98    2
    71   141   142    1
    72   145   144    1
    73   145   146    2
    74   144   147    1
    75    97    98    1
    76   130   129    2
    77    28    27    1
    78    28    29    2
    79    98   100   am
    80     5     2    1
    81    27    30    1
    82    27    26    1
    83    30    32    1
    84   151   152    1
    85    45    46    1
    86   129   128    1
    87   147   148    1
    88   152   153    1
    89   100   101    1
    90     1     2    1
    91     2     3    1
    92   157   158    2
    93   157   156    1
    94   149   148   ar
    95   101   102    1
    96   101   104    1
    97   153   154    2
    98   153   155   am
    99   148   150   ar
   100   155   156    1
   101   128   131    1
   102   128   127    1
   103   102   103    2
   104   131   132    1
   105     3     9   am
   106     3     4    2
   107   156   159    1
   108   104   105    1
   109     9    10    1
   110   132   133    2
   111   132   134   am
   112   127   118   am
   113   119   118    2
   114    12    11    2
   115    24    25    2
   116    24    23    1
   117   159   160    1
   118   108   109    1
   119    23    22    1
   120   118   117    1
   121   111   110    2
   122    10    11    1
   123   110   109    1
   124   105   106   ar
   125   105   107   ar
   126    11    13   am
   127   109   112    1
   128   112   113    1
   129   160   161    1
   130   117   116    1
   131   117   120    1
   132    16    15    2
   133    13    14    1
   134   115   113   ar
   135   113   114   ar
   136    14    15    1
   137    14    17    1
   138   120   121    1
   139   161   162    1
   140   121   122    1
   141    21    19   am
   142    20    19    2
   143    19    18    1
   144    17    18    1
   145   122   123    1
   146   123   124    2
   147   124   126    1
   148   124   125    1
