@<TRIPOS>MOLECULE
tmp/3bu8B00.pdb
 222 210 0 0 0
SMALL
GASTEIGER

@<TRIPOS>ATOM
      1  N          2.3860   20.0170   13.7590 N.3    38  ARG38      -0.1231
      2  CA         2.9780   19.3860   12.5780 C.3    38  ARG38       0.1694
      3  C          4.3060   18.7200   12.9520 C.2    38  ARG38       0.2592
      4  O          4.6160   17.6280   12.4870 O.2    38  ARG38      -0.2718
      5  CB         3.2280   20.4410   11.4930 C.3    38  ARG38       0.0321
      6  CG         4.0010   19.9420   10.2730 C.3    38  ARG38       0.0489
      7  CD         4.6770   21.1020    9.5380 C.3    38  ARG38       0.2205
      8  NE         5.6700   21.7470   10.3930 N.pl3  38  ARG38      -0.0865
      9  CZ         6.3300   22.8630   10.0900 C.cat  38  ARG38       0.5346
     10  NH1        6.1230   23.4930    8.9440 N.pl3  38  ARG38       0.1354
     11  NH2        7.2130   23.3510   10.9450 N.pl3  38  ARG38       0.1354
     12  N          5.0910   19.3890   13.7900 N.am   39  ASP39      -0.1974
     13  CA         6.3870   18.8500   14.2170 C.3    39  ASP39       0.1709
     14  C          6.2460   17.6280   15.0990 C.2    39  ASP39       0.2293
     15  O          7.0930   16.7320   15.0690 O.2    39  ASP39      -0.2864
     16  CB         7.1980   19.9210   14.9420 C.3    39  ASP39       0.1436
     17  CG         7.6800   20.9940   14.0050 C.2    39  ASP39       0.3671
     18  OD1        7.7310   20.7200   12.7900 O.co2  39  ASP39      -0.2456
     19  OD2        8.0200   22.1000   14.4700 O.co2  39  ASP39      -0.2456
     20  N          3.8360   15.4620   14.8090 N.3    41  MET41      -0.1230
     21  CA         3.4670   14.4060   13.8660 C.3    41  MET41       0.1702
     22  C          4.6670   13.9440   13.0470 C.2    41  MET41       0.2592
     23  O          4.7970   12.7610   12.7230 O.2    41  MET41      -0.2718
     24  CB         2.3530   14.9050   12.9320 C.3    41  MET41       0.0401
     25  CG         1.0410   15.2290   13.6700 C.3    41  MET41       0.0596
     26  SD        -0.2460   15.9530   12.6220 S.3    41  MET41      -0.1393
     27  CE        -0.7700   14.5490   11.7210 C.3    41  MET41       0.0692
     28  N          5.5380   14.8880   12.7150 N.am   42  GLN42      -0.1979
     29  CA         6.7390   14.5930   11.9500 C.3    42  GLN42       0.1601
     30  C          7.6220   13.6450   12.7600 C.2    42  GLN42       0.2287
     31  O          8.2270   12.7230   12.2170 O.2    42  GLN42      -0.2864
     32  CB         7.4860   15.8970   11.6680 C.3    42  GLN42       0.0394
     33  CG         8.8790   15.7350   11.0580 C.3    42  GLN42       0.0908
     34  CD         8.8520   15.1020    9.6850 C.2    42  GLN42       0.2608
     35  OE1        8.1340   15.5600    8.7980 O.2    42  GLN42      -0.2717
     36  NE2        9.6340   14.0450    9.5020 N.am   42  GLN42      -0.0878
     37  N          6.3710    9.9070   12.8830 N.3    45  LEU45      -0.1245
     38  CA         6.5290    9.1620   11.6360 C.3    45  LEU45       0.1561
     39  C          7.6640    8.1520   11.5910 C.2    45  LEU45       0.2260
     40  O          7.6060    7.1990   10.8130 O.2    45  LEU45      -0.2867
     41  CB         6.6870   10.1240   10.4570 C.3    45  LEU45       0.0270
     42  CG         5.4910   11.0290   10.1610 C.3    45  LEU45       0.0019
     43  CD1        5.7040   11.7400    8.8310 C.3    45  LEU45       0.0001
     44  CD2        4.2200   10.1950   10.1140 C.3    45  LEU45       0.0001
     45  N         -2.3290    7.3180    5.5570 N.3    56  SER56      -0.1217
     46  CA        -1.6160    7.7640    4.3600 C.3    56  SER56       0.1889
     47  C         -2.3230    8.9900    3.8020 C.2    56  SER56       0.2288
     48  O         -1.6870    9.9610    3.3890 O.2    56  SER56      -0.2866
     49  CB        -1.6160    6.6600    3.3040 C.3    56  SER56       0.2089
     50  OG        -1.6600    5.3960    3.9320 O.3    56  SER56      -0.2183
     51  N         -1.6710   11.6980    6.1860 N.3    59  LEU59      -0.1231
     52  CA        -0.3380   12.2440    5.9870 C.3    59  LEU59       0.1693
     53  C         -0.1560   13.0280    4.6940 C.2    59  LEU59       0.2591
     54  O          0.5880   14.0100    4.6720 O.2    59  LEU59      -0.2718
     55  CB         0.6990   11.1210    6.1010 C.3    59  LEU59       0.0284
     56  CG         0.7110   10.4530    7.4860 C.3    59  LEU59       0.0019
     57  CD1        1.6130    9.2340    7.4560 C.3    59  LEU59       0.0001
     58  CD2        1.1770   11.4450    8.5520 C.3    59  LEU59       0.0001
     59  N         -0.8170   12.6080    3.6160 N.am   60  ARG60      -0.1980
     60  CA        -0.7150   13.3550    2.3680 C.3    60  ARG60       0.1597
     61  C         -1.3340   14.7370    2.5610 C.2    60  ARG60       0.2287
     62  O         -0.8380   15.7320    2.0360 O.2    60  ARG60      -0.2864
     63  CB        -1.4380   12.6280    1.2320 C.3    60  ARG60       0.0334
     64  CG        -0.6510   11.4810    0.6310 C.3    60  ARG60       0.0492
     65  CD         0.6870   11.9670    0.1000 C.3    60  ARG60       0.2205
     66  NE         1.3580   10.9340   -0.6740 N.pl3  60  ARG60      -0.0865
     67  CZ         2.6490   10.9500   -0.9860 C.cat  60  ARG60       0.5346
     68  NH1        3.4210   11.9500   -0.5830 N.pl3  60  ARG60       0.1354
     69  NH2        3.1620    9.9670   -1.7140 N.pl3  60  ARG60       0.1354
     70  N         -1.6340   16.4660    5.5170 N.3    62  MET62      -0.1230
     71  CA        -0.7280   17.2560    6.3570 C.3    62  MET62       0.1702
     72  C          0.3820   17.8190    5.4890 C.2    62  MET62       0.2592
     73  O          0.7480   18.9960    5.5820 O.2    62  MET62      -0.2718
     74  CB        -0.0820   16.3930    7.4540 C.3    62  MET62       0.0401
     75  CG        -0.8280   16.3690    8.7680 C.3    62  MET62       0.0596
     76  SD        -1.3230   18.0110    9.3330 S.3    62  MET62      -0.1393
     77  CE         0.1690   18.6530   10.1590 C.3    62  MET62       0.0692
     78  N          0.9110   16.9480    4.6450 N.am   63  GLN63      -0.1979
     79  CA         1.9890   17.2930    3.7330 C.3    63  GLN63       0.1601
     80  C          1.6240   18.5130    2.8910 C.2    63  GLN63       0.2287
     81  O          2.3640   19.4970    2.8420 O.2    63  GLN63      -0.2864
     82  CB         2.2740   16.0800    2.8450 C.3    63  GLN63       0.0394
     83  CG         3.6380   16.0420    2.2180 C.3    63  GLN63       0.0908
     84  CD         4.0570   14.6230    1.8770 C.2    63  GLN63       0.2608
     85  OE1        3.3770   13.9180    1.1260 O.2    63  GLN63      -0.2717
     86  NE2        5.1830   14.1950    2.4330 N.am   63  GLN63      -0.0878
     87  N          1.0780   21.6360    5.1120 N.3    66  SER66      -0.1202
     88  CA         2.3320   22.1300    5.6660 C.3    66  SER66       0.2020
     89  C          3.0350   23.0190    4.6540 C.2    66  SER66       0.2618
     90  O          3.6020   24.0540    5.0180 O.2    66  SER66      -0.2717
     91  CB         3.2420   20.9670    6.0680 C.3    66  SER66       0.2103
     92  OG         2.6870   20.2570    7.1580 O.3    66  SER66      -0.2182
     93  N          2.9960   22.6130    3.3850 N.am   67  ARG67      -0.1979
     94  CA         3.6290   23.3850    2.3200 C.3    67  ARG67       0.1597
     95  C          2.8550   24.6550    2.0480 C.2    67  ARG67       0.2287
     96  O          3.4390   25.6950    1.7590 O.2    67  ARG67      -0.2864
     97  CB         3.7450   22.5410    1.0420 C.3    67  ARG67       0.0334
     98  CG         4.8430   21.4920    1.1540 C.3    67  ARG67       0.0492
     99  CD         4.4770   20.1850    0.4900 C.3    67  ARG67       0.2205
    100  NE         5.5770   19.2230    0.5770 N.pl3  67  ARG67      -0.0865
    101  CZ         5.9750   18.6210    1.6970 C.cat  67  ARG67       0.5346
    102  NH1        5.3680   18.8670    2.8510 N.pl3  67  ARG67       0.1354
    103  NH2        6.9920   17.7720    1.6650 N.pl3  67  ARG67       0.1354
    104  N          3.5560   27.4250    4.7720 N.3    70  GLU70      -0.1245
    105  CA         4.8340   28.1050    4.6060 C.3    70  GLU70       0.1567
    106  C          4.9390   28.6620    3.1820 C.2    70  GLU70       0.2260
    107  O          6.0110   29.0820    2.7360 O.2    70  GLU70      -0.2867
    108  CB         5.9810   27.1290    4.8890 C.3    70  GLU70       0.0388
    109  CG         5.9970   26.6300    6.3320 C.3    70  GLU70       0.1160
    110  CD         7.2340   27.0630    7.1040 C.2    70  GLU70       0.3649
    111  OE1        7.5480   28.2780    7.1110 O.co2  70  GLU70      -0.2457
    112  OE2        7.8840   26.1820    7.7100 O.co2  70  GLU70      -0.2457
    113  N          9.6340   31.9680    0.7410 N.3    74  LEU74      -0.1231
    114  CA        10.4120   31.3990   -0.3430 C.3    74  LEU74       0.1693
    115  C         11.8250   31.0080    0.0720 C.2    74  LEU74       0.2592
    116  O         12.6690   30.7320   -0.7750 O.2    74  LEU74      -0.2718
    117  CB        10.4480   32.3750   -1.5170 C.3    74  LEU74       0.0284
    118  CG         9.0500   32.7580   -2.0160 C.3    74  LEU74       0.0019
    119  CD1        9.1680   33.7740   -3.1380 C.3    74  LEU74       0.0001
    120  CD2        8.3050   31.5070   -2.4830 C.3    74  LEU74       0.0001
    121  N         12.0800   30.9960    1.3770 N.am   75  ASP75      -0.1960
    122  CA        13.3780   30.5920    1.8960 C.3    75  ASP75       0.1840
    123  C         13.2780   29.1280    2.2870 C.2    75  ASP75       0.2622
    124  O         14.2920   28.4560    2.4760 O.2    75  ASP75      -0.2715
    125  CB        13.7650   31.4050    3.1310 C.3    75  ASP75       0.1450
    126  CG        14.0980   32.8410    2.8020 C.2    75  ASP75       0.3671
    127  OD1       14.3800   33.1280    1.6170 O.co2  75  ASP75      -0.2456
    128  OD2       14.0920   33.6790    3.7310 O.co2  75  ASP75      -0.2456
    129  N         12.0480   28.6400    2.4150 N.am   76  CYS76      -0.1954
    130  CA        11.8260   27.2530    2.7910 C.3    76  CYS76       0.1843
    131  C         11.9140   26.3220    1.6100 C.2    76  CYS76       0.2626
    132  O         11.5490   26.6760    0.4950 O.2    76  CYS76      -0.2714
    133  CB        10.4580   27.0740    3.4500 C.3    76  CYS76       0.0997
    134  SG        10.3890   27.6260    5.1430 S.3    76  CYS76      -0.0797
    135  N         12.3890   25.1170    1.8800 N.am   77  SER77      -0.1936
    136  CA        12.5230   24.0930    0.8660 C.3    77  SER77       0.2055
    137  C         12.0640   22.7780    1.4750 C.2    77  SER77       0.2643
    138  O         12.6430   22.3040    2.4560 O.2    77  SER77      -0.2714
    139  CB        13.9840   23.9780    0.4160 C.3    77  SER77       0.2130
    140  OG        14.3170   22.6330    0.1050 O.3    77  SER77      -0.2179
    141  N         11.0050   22.2080    0.9110 N.am   78  PHE78      -0.1959
    142  CA        10.4830   20.9340    1.3880 C.3    78  PHE78       0.1771
    143  C         11.0220   19.8700    0.4650 C.2    78  PHE78       0.2620
    144  O         10.5960   18.7170    0.5190 O.2    78  PHE78      -0.2715
    145  CB         8.9570   20.8940    1.3030 C.3    78  PHE78       0.0574
    146  CG         8.2710   21.7850    2.2820 C.ar   78  PHE78      -0.0200
    147  CD1        8.2190   23.1580    2.0780 C.ar   78  PHE78      -0.0042
    148  CD2        7.6670   21.2470    3.4170 C.ar   78  PHE78      -0.0042
    149  CE1        7.5740   23.9870    2.9890 C.ar   78  PHE78      -0.0003
    150  CE2        7.0220   22.0660    4.3350 C.ar   78  PHE78      -0.0003
    151  CZ         6.9740   23.4390    4.1220 C.ar   78  PHE78      -0.0000
    152  N         11.9610   20.2550   -0.3880 N.am   79  ASP79      -0.1957
    153  CA        12.4730   19.2990   -1.3440 C.3    79  ASP79       0.1840
    154  C         13.9510   19.1520   -1.6000 C.2    79  ASP79       0.2621
    155  O         14.7550   20.0690   -1.4120 O.2    79  ASP79      -0.2715
    156  CB        11.7840   19.5170   -2.6840 C.3    79  ASP79       0.1450
    157  CG        10.3470   19.0880   -2.6580 C.2    79  ASP79       0.3671
    158  OD1       10.0990   17.9320   -2.2550 O.co2  79  ASP79      -0.2456
    159  OD2        9.4710   19.8970   -3.0360 O.co2  79  ASP79      -0.2456
    160  N         14.2670   17.9470   -2.0530 N.am   80  MET80      -0.1977
    161  CA        15.6020   17.5420   -2.4300 C.3    80  MET80       0.1605
    162  C         16.2560   18.6970   -3.1610 C.2    80  MET80       0.2287
    163  O         17.3330   19.1630   -2.7950 O.2    80  MET80      -0.2864
    164  CB        15.4940   16.3570   -3.3810 C.3    80  MET80       0.0413
    165  CG        14.3290   16.4880   -4.3650 C.3    80  MET80       0.0598
    166  SD        12.7850   15.8690   -3.6610 S.3    80  MET80      -0.1393
    167  CE        12.9140   14.1150   -4.1400 C.3    80  MET80       0.0692
    168  N         16.5500   22.4260   -4.1780 N.3    82  ALA82      -0.1231
    169  CA        16.3320   23.7860   -3.6900 C.3    82  ALA82       0.1694
    170  C         15.3900   24.6010   -4.5670 C.2    82  ALA82       0.2592
    171  O         14.6710   25.4740   -4.0750 O.2    82  ALA82      -0.2718
    172  CB        17.6690   24.5060   -3.5800 C.3    82  ALA82       0.0304
    173  N         15.4090   24.3200   -5.8660 N.am   83  GLU83      -0.1966
    174  CA        14.5800   25.0370   -6.8280 C.3    83  GLU83       0.1733
    175  C         13.1420   25.2660   -6.3610 C.2    83  GLU83       0.2616
    176  O         12.6650   26.4010   -6.3190 O.2    83  GLU83      -0.2715
    177  CB        14.5620   24.2810   -8.1630 C.3    83  GLU83       0.0429
    178  CG        13.8950   25.0380   -9.3090 C.3    83  GLU83       0.1163
    179  CD        14.8900   25.4830  -10.3710 C.2    83  GLU83       0.3649
    180  OE1       15.4630   24.6040  -11.0550 O.co2  83  GLU83      -0.2457
    181  OE2       15.1020   26.7090  -10.5160 O.co2  83  GLU83      -0.2457
    182  N         12.4680   24.1850   -5.9950 N.am   84  LEU84      -0.1963
    183  CA        11.0730   24.2500   -5.5810 C.3    84  LEU84       0.1728
    184  C         10.6810   25.1030   -4.3860 C.2    84  LEU84       0.2616
    185  O         11.1300   24.8790   -3.2660 O.2    84  LEU84      -0.2715
    186  CB        10.5270   22.8360   -5.3680 C.3    84  LEU84       0.0311
    187  CG        10.2770   22.0120   -6.6340 C.3    84  LEU84       0.0022
    188  CD1       11.5760   21.7910   -7.3580 C.3    84  LEU84       0.0001
    189  CD2        9.6510   20.6800   -6.2710 C.3    84  LEU84       0.0001
    190  N          9.8320   26.0900   -4.6510 N.am   85  THR85      -0.1951
    191  CA         9.2890   26.9440   -3.6090 C.3    85  THR85       0.1897
    192  C          8.2450   26.0300   -2.9620 C.2    85  THR85       0.2313
    193  O          7.8250   25.0430   -3.5670 O.2    85  THR85      -0.2863
    194  CB         8.5760   28.1780   -4.1980 C.3    85  THR85       0.1794
    195  OG1        7.5530   27.7500   -5.1050 O.3    85  THR85      -0.2208
    196  CG2        9.5620   29.0730   -4.9400 C.3    85  THR85       0.0378
    197  N          0.2440   13.7870   -6.1280 N.3    96  MET96      -0.1245
    198  CA         0.3300   12.5050   -5.4430 C.3    96  MET96       0.1570
    199  C         -1.0400   12.1550   -4.8780 C.2    96  MET96       0.2261
    200  O         -1.4700   11.0010   -4.9260 O.2    96  MET96      -0.2867
    201  CB         1.3600   12.5790   -4.3180 C.3    96  MET96       0.0387
    202  CG         2.7640   12.8860   -4.8100 C.3    96  MET96       0.0595
    203  SD         4.0030   12.6300   -3.5410 S.3    96  MET96      -0.1393
    204  CE         4.8080   14.2470   -3.4740 C.3    96  MET96       0.0692
    205  N         10.1950   38.0810   -7.7520 N.3   128  GLU128     -0.1245
    206  CA        10.9620   36.9480   -8.2360 C.3   128  GLU128      0.1567
    207  C         10.2690   36.7100   -9.5770 C.2   128  GLU128      0.2260
    208  O          9.6610   35.6600   -9.8060 O.2   128  GLU128     -0.2867
    209  CB        10.7730   35.7480   -7.3050 C.3   128  GLU128      0.0388
    210  CG        11.6900   35.7370   -6.0890 C.3   128  GLU128      0.1160
    211  CD        13.0270   35.0650   -6.3770 C.2   128  GLU128      0.3649
    212  OE1       13.0320   33.8390   -6.6280 O.co2 128  GLU128     -0.2457
    213  OE2       14.0680   35.7570   -6.3590 O.co2 128  GLU128     -0.2457
    214  N         11.3990   33.6920  -11.7340 N.3   131  LYS131     -0.1245
    215  CA        10.8840   32.4820  -11.1120 C.3   131  LYS131      0.1561
    216  C          9.3820   32.3620  -11.3810 C.2   131  LYS131      0.2260
    217  O          8.8720   31.2750  -11.6670 O.2   131  LYS131     -0.2867
    218  CB        11.1440   32.5430   -9.6070 C.3   131  LYS131      0.0271
    219  CG        10.8830   31.2550   -8.8530 C.3   131  LYS131      0.0035
    220  CD        11.8900   30.1760   -9.2330 C.3   131  LYS131      0.0206
    221  CE        11.6770   28.9240   -8.4060 C.3   131  LYS131      0.1093
    222  NZ        11.8870   27.7060   -9.2270 N.3   131  LYS131     -0.1314
@<TRIPOS>BOND
     1   214   215    1
     2   217   216    2
     3   216   215    1
     4   215   218    1
     5   180   179   ar
     6   181   179   ar
     7   179   178    1
     8   208   207    2
     9   218   219    1
    10   207   206    1
    11   178   177    1
    12   220   219    1
    13   220   221    1
    14   222   221    1
    15   206   205    1
    16   206   209    1
    17   177   174    1
    18   188   187    1
    19   209   210    1
    20   174   175    1
    21   174   173    1
    22   187   189    1
    23   187   186    1
    24   212   211   ar
    25   211   213   ar
    26   211   210    1
    27   175   176    2
    28   175   182   am
    29   197   198    1
    30   182   183    1
    31   173   170   am
    32   183   186    1
    33   183   184    1
    34   198   199    1
    35   198   201    1
    36   195   194    1
    37   196   194    1
    38   200   199    2
    39   202   201    1
    40   202   203    1
    41   190   184   am
    42   190   191    1
    43   170   171    2
    44   170   169    1
    45   184   185    2
    46   165   166    1
    47   165   164    1
    48   194   191    1
    49   168   169    1
    50   167   166    1
    51   169   172    1
    52   191   192    1
    53   193   192    2
    54   203   204    1
    55   164   161    1
    56   162   163    2
    57   162   161    1
    58   119   118    1
    59   159   157   ar
    60   156   157    1
    61   156   153    1
    62   157   158   ar
    63   120   118    1
    64   161   160    1
    65   160   154   am
    66   118   117    1
    67    69    67    1
    68   154   155    2
    69   154   153    1
    70   117   114    1
    71   153   152    1
    72    67    66    2
    73    67    68    1
    74   116   115    2
    75    66    65    1
    76   152   143   am
    77   114   115    1
    78   114   113    1
    79   115   121   am
    80    65    64    1
    81   140   139    1
    82   139   136    1
    83   143   144    2
    84   143   142    1
    85    99   100    1
    86    99    98    1
    87   132   131    2
    88   100   101    2
    89    64    63    1
    90   136   137    1
    91   136   135    1
    92   141   142    1
    93   141   137   am
    94    97    98    1
    95    97    94    1
    96    85    84    2
    97    63    60    1
    98   145   142    1
    99   145   146    1
   100   121   122    1
   101   137   138    2
   102   131   135   am
   103   131   130    1
   104   127   126   ar
   105   103   101    1
   106   101   102    1
   107    96    95    2
   108    84    83    1
   109    84    86   am
   110   122   123    1
   111   122   125    1
   112    62    61    2
   113    95    94    1
   114   147   146   ar
   115   147   149   ar
   116    83    82    1
   117   146   148   ar
   118   123   129   am
   119   123   124    2
   120    94    93    1
   121    60    61    1
   122    60    59    1
   123   129   130    1
   124   107   106    2
   125   130   133    1
   126   126   125    1
   127   126   128   ar
   128    81    80    2
   129    82    79    1
   130    80    79    1
   131   149   151   ar
   132   106   105    1
   133    49    50    1
   134    49    46    1
   135    93    89   am
   136    48    47    2
   137   148   150   ar
   138   133   134    1
   139    59    53   am
   140    79    78    1
   141    47    46    1
   142   151   150   ar
   143    46    45    1
   144   105   104    1
   145   105   108    1
   146    78    72   am
   147    89    90    2
   148    89    88    1
   149    54    53    2
   150    53    52    1
   151   108   109    1
   152    87    88    1
   153    72    73    2
   154    72    71    1
   155    70    71    1
   156    88    91    1
   157    52    55    1
   158    52    51    1
   159    91    92    1
   160    55    56    1
   161   109   110    1
   162    71    74    1
   163   110   111   ar
   164   110   112   ar
   165    74    75    1
   166    57    56    1
   167    56    58    1
   168    75    76    1
   169    35    34    2
   170    43    42    1
   171    10     9    1
   172    76    77    1
   173    36    34   am
   174     7     6    1
   175     7     8    1
   176    34    33    1
   177     9     8    2
   178     9    11    1
   179    44    42    1
   180    42    41    1
   181     6     5    1
   182    41    38    1
   183    40    39    2
   184    33    32    1
   185     5     2    1
   186    39    38    1
   187    38    37    1
   188    32    29    1
   189    27    26    1
   190    29    28    1
   191    29    30    1
   192    31    30    2
   193     4     3    2
   194     2     3    1
   195     2     1    1
   196    26    25    1
   197    28    22   am
   198    23    22    2
   199    18    17   ar
   200    24    25    1
   201    24    21    1
   202     3    12   am
   203    22    21    1
   204    12    13    1
   205    21    20    1
   206    17    19   ar
   207    17    16    1
   208    13    16    1
   209    13    14    1
   210    15    14    2
