@<TRIPOS>MOLECULE
tmp/3buaB00.pdb
 202 191 0 0 0
SMALL
GASTEIGER

@<TRIPOS>ATOM
      1  N         22.6770  -10.7640    5.8790 N.3    37  ARG37      -0.1231
      2  CA        22.3150   -9.8490    6.9540 C.3    37  ARG37       0.1694
      3  C         23.5550   -9.5440    7.7870 C.2    37  ARG37       0.2592
      4  O         23.8520   -8.3810    8.0710 O.2    37  ARG37      -0.2718
      5  CB        21.2590  -10.4790    7.8590 C.3    37  ARG37       0.0321
      6  CG        20.8910   -9.6310    9.0670 C.3    37  ARG37       0.0489
      7  CD        20.2040  -10.4660   10.1240 C.3    37  ARG37       0.2205
      8  NE        21.1330  -11.4030   10.7500 N.pl3  37  ARG37      -0.0865
      9  CZ        20.7720  -12.3690   11.5870 C.cat  37  ARG37       0.5346
     10  NH1       19.4910  -12.5330   11.9030 N.pl3  37  ARG37       0.1354
     11  NH2       21.6920  -13.1720   12.1070 N.pl3  37  ARG37       0.1354
     12  N         24.2790  -10.5910    8.1730 N.am   38  ASP38      -0.1974
     13  CA        25.4820  -10.4170    8.9750 C.3    38  ASP38       0.1709
     14  C         26.5450   -9.5920    8.2460 C.2    38  ASP38       0.2293
     15  O         27.2930   -8.8340    8.8760 O.2    38  ASP38      -0.2864
     16  CB        26.0550  -11.7760    9.3840 C.3    38  ASP38       0.1436
     17  CG        25.1220  -12.5510   10.2990 C.2    38  ASP38       0.3671
     18  OD1       24.2390  -11.9280   10.9320 O.co2  38  ASP38      -0.2456
     19  OD2       25.2770  -13.7860   10.3990 O.co2  38  ASP38      -0.2456
     20  N         25.9180   -7.2010    6.0750 N.3    40  MET40      -0.1230
     21  CA        25.4110   -5.8330    6.1220 C.3    40  MET40       0.1702
     22  C         25.5710   -5.2030    7.5040 C.2    40  MET40       0.2592
     23  O         25.8140   -3.9990    7.6160 O.2    40  MET40      -0.2718
     24  CB        23.9350   -5.8150    5.7240 C.3    40  MET40       0.0401
     25  CG        23.6700   -6.2070    4.2870 C.3    40  MET40       0.0596
     26  SD        21.8990   -6.2850    3.9390 S.3    40  MET40      -0.1393
     27  CE        21.4750   -4.5610    3.9700 C.3    40  MET40       0.0692
     28  N         25.4220   -6.0180    8.5480 N.am   41  GLN41      -0.1979
     29  CA        25.5430   -5.5460    9.9220 C.3    41  GLN41       0.1601
     30  C         26.9730   -5.1240   10.2350 C.2    41  GLN41       0.2287
     31  O         27.1980   -4.1590   10.9700 O.2    41  GLN41      -0.2864
     32  CB        25.1030   -6.6460   10.8900 C.3    41  GLN41       0.0394
     33  CG        25.1750   -6.2710   12.3620 C.3    41  GLN41       0.0908
     34  CD        24.2860   -5.0940   12.7160 C.2    41  GLN41       0.2608
     35  OE1       23.0990   -5.0770   12.3930 O.2    41  GLN41      -0.2717
     36  NE2       24.8580   -4.1060   13.3970 N.am   41  GLN41      -0.0878
     37  N         27.8610   -1.6550    8.7200 N.3    44  LEU44      -0.1231
     38  CA        27.2990   -0.4720    9.3660 C.3    44  LEU44       0.1693
     39  C         28.2270    0.3650   10.2380 C.2    44  LEU44       0.2592
     40  O         27.8970    1.5100   10.5540 O.2    44  LEU44      -0.2718
     41  CB        26.0590   -0.8650   10.1730 C.3    44  LEU44       0.0284
     42  CG        24.8920   -1.4400    9.3600 C.3    44  LEU44       0.0019
     43  CD1       23.7630   -1.8320   10.2980 C.3    44  LEU44       0.0001
     44  CD2       24.4080   -0.4060    8.3450 C.3    44  LEU44       0.0001
     45  N         29.3730   -0.1820   10.6340 N.am   45  VAL45      -0.1966
     46  CA        30.3050    0.5790   11.4650 C.3    45  VAL45       0.1727
     47  C         31.2390    1.4320   10.6150 C.2    45  VAL45       0.2616
     48  O         31.9230    2.3160   11.1190 O.2    45  VAL45      -0.2715
     49  CB        31.1670   -0.3460   12.3590 C.3    45  VAL45       0.0290
     50  CG1       30.3050   -0.9610   13.4450 C.3    45  VAL45       0.0023
     51  CG2       31.8150   -1.4300   11.5200 C.3    45  VAL45       0.0023
     52  N         31.2550    1.1590    9.3180 N.am   46  ARG46      -0.1977
     53  CA        32.1080    1.8770    8.3820 C.3    46  ARG46       0.1597
     54  C         31.4360    3.1410    7.8630 C.2    46  ARG46       0.2287
     55  O         30.2100    3.2070    7.7600 O.2    46  ARG46      -0.2864
     56  CB        32.4310    0.9750    7.1920 C.3    46  ARG46       0.0334
     57  CG        33.1800   -0.3020    7.5410 C.3    46  ARG46       0.0492
     58  CD        34.6800   -0.0720    7.5180 C.3    46  ARG46       0.2205
     59  NE        35.1450    0.6700    8.6790 N.pl3  46  ARG46      -0.0865
     60  CZ        36.1590    1.5250    8.6590 C.cat  46  ARG46       0.5346
     61  NH1       36.8110    1.7540    7.5310 N.pl3  46  ARG46       0.1354
     62  NH2       36.5330    2.1370    9.7720 N.pl3  46  ARG46       0.1354
     63  N         29.5980    5.7230    5.8060 N.3    48  LEU48      -0.1245
     64  CA        28.6550    5.5300    4.7120 C.3    48  LEU48       0.1561
     65  C         28.3960    6.8810    4.0690 C.2    48  LEU48       0.2260
     66  O         27.8950    6.9690    2.9460 O.2    48  LEU48      -0.2867
     67  CB        27.3520    4.9240    5.2370 C.3    48  LEU48       0.0270
     68  CG        27.4370    3.4290    5.5700 C.3    48  LEU48       0.0019
     69  CD1       26.2420    3.0110    6.4130 C.3    48  LEU48       0.0001
     70  CD2       27.5000    2.6270    4.2770 C.3    48  LEU48       0.0001
     71  N         23.4110    9.0160    5.6280 N.3    51  GLU51      -0.1245
     72  CA        22.3380    8.2220    6.1980 C.3    51  GLU51       0.1567
     73  C         21.0880    8.1270    5.3100 C.2    51  GLU51       0.2260
     74  O         20.6790    7.0300    4.9320 O.2    51  GLU51      -0.2867
     75  CB        21.9750    8.7830    7.5700 C.3    51  GLU51       0.0388
     76  CG        21.3730    7.7630    8.5000 C.3    51  GLU51       0.1160
     77  CD        21.1640    8.3060    9.8880 C.2    51  GLU51       0.3649
     78  OE1       20.3020    7.7550   10.5970 O.co2  51  GLU51      -0.2457
     79  OE2       21.8620    9.2720   10.2710 O.co2  51  GLU51      -0.2457
     80  N         20.2810    5.7830    2.4950 N.3    54  VAL54      -0.1231
     81  CA        20.2390    4.3840    2.8820 C.3    54  VAL54       0.1692
     82  C         19.2790    4.1120    4.0410 C.2    54  VAL54       0.2592
     83  O         18.9300    2.9660    4.3280 O.2    54  VAL54      -0.2718
     84  CB        21.6840    3.9450    3.2350 C.3    54  VAL54       0.0266
     85  CG1       21.7020    3.0360    4.4270 C.3    54  VAL54       0.0020
     86  CG2       22.3180    3.2690    2.0360 C.3    54  VAL54       0.0020
     87  N         18.8470    5.1830    4.6900 N.am   55  SER55      -0.1952
     88  CA        17.9360    5.1170    5.8240 C.3    55  SER55       0.1924
     89  C         16.7220    4.2280    5.5500 C.2    55  SER55       0.2314
     90  O         16.2420    3.5160    6.4340 O.2    55  SER55      -0.2863
     91  CB        17.4690    6.5390    6.1630 C.3    55  SER55       0.2116
     92  OG        17.0970    6.6560    7.5230 O.3    55  SER55      -0.2180
     93  N         17.4760    0.2710    5.0300 N.3    58  LEU58      -0.1231
     94  CA        17.9490   -0.2150    6.3170 C.3    58  LEU58       0.1693
     95  C         16.7760   -0.5360    7.2440 C.2    58  LEU58       0.2591
     96  O         16.7910   -1.5520    7.9380 O.2    58  LEU58      -0.2718
     97  CB        18.8710    0.8280    6.9430 C.3    58  LEU58       0.0284
     98  CG        20.3290    0.4270    7.2020 C.3    58  LEU58       0.0019
     99  CD1       20.7860   -0.6560    6.2270 C.3    58  LEU58       0.0001
    100  CD2       21.2030    1.6690    7.0950 C.3    58  LEU58       0.0001
    101  N         15.7610    0.3230    7.2440 N.am   59  ARG59      -0.1980
    102  CA        14.5850    0.1020    8.0730 C.3    59  ARG59       0.1597
    103  C         13.8370   -1.1320    7.5850 C.2    59  ARG59       0.2287
    104  O         13.3280   -1.9130    8.3890 O.2    59  ARG59      -0.2864
    105  CB        13.6560    1.3200    8.0440 C.3    59  ARG59       0.0334
    106  CG        14.2140    2.5630    8.7400 C.3    59  ARG59       0.0492
    107  CD        14.5460    2.2730   10.2020 C.3    59  ARG59       0.2205
    108  NE        15.0290    3.4590   10.9050 N.pl3  59  ARG59      -0.0865
    109  CZ        15.6510    3.4290   12.0800 C.cat  59  ARG59       0.5346
    110  NH1       15.8700    2.2680   12.6890 N.pl3  59  ARG59       0.1354
    111  NH2       16.0620    4.5570   12.6460 N.pl3  59  ARG59       0.1354
    112  N         15.1980   -3.6740    5.9930 N.3    61  MET61      -0.1230
    113  CA        16.0450   -4.8230    6.3140 C.3    61  MET61       0.1702
    114  C         15.8670   -5.1870    7.7870 C.2    61  MET61       0.2592
    115  O         15.8050   -6.3670    8.1370 O.2    61  MET61      -0.2718
    116  CB        17.5140   -4.4980    6.0320 C.3    61  MET61       0.0401
    117  CG        18.4640   -5.6830    6.1770 C.3    61  MET61       0.0596
    118  SD        18.1990   -6.9680    4.9410 S.3    61  MET61      -0.1393
    119  CE        19.2210   -8.2800    5.5500 C.3    61  MET61       0.0692
    120  N         15.7880   -4.1710    8.6470 N.am   62  GLN62      -0.1979
    121  CA        15.5940   -4.4070   10.0790 C.3    62  GLN62       0.1601
    122  C         14.3180   -5.2070   10.3040 C.2    62  GLN62       0.2287
    123  O         14.3260   -6.2440   10.9720 O.2    62  GLN62      -0.2864
    124  CB        15.4780   -3.0890   10.8420 C.3    62  GLN62       0.0394
    125  CG        16.7990   -2.4270   11.1860 C.3    62  GLN62       0.0908
    126  CD        16.6000   -1.1790   12.0280 C.2    62  GLN62       0.2608
    127  OE1       16.0420   -0.1820   11.5620 O.2    62  GLN62      -0.2717
    128  NE2       17.0470   -1.2290   13.2770 N.am   62  GLN62      -0.0878
    129  N         14.6310   -8.7540    9.0410 N.3    65  SER65      -0.1202
    130  CA        15.5320   -9.5390    9.8730 C.3    65  SER65       0.2020
    131  C         14.8230  -10.0370   11.1220 C.2    65  SER65       0.2618
    132  O         14.9830  -11.1900   11.5280 O.2    65  SER65      -0.2717
    133  CB        16.7440   -8.7010   10.2660 C.3    65  SER65       0.2103
    134  OG        17.4050   -8.2180    9.1100 O.3    65  SER65      -0.2182
    135  N         14.0400   -9.1620   11.7370 N.am   66  ARG66      -0.1979
    136  CA        13.3040   -9.5400   12.9290 C.3    66  ARG66       0.1597
    137  C         12.2370  -10.5650   12.5570 C.2    66  ARG66       0.2287
    138  O         12.0510  -11.5660   13.2420 O.2    66  ARG66      -0.2864
    139  CB        12.6990   -8.2920   13.5650 C.3    66  ARG66       0.0334
    140  CG        13.7690   -7.4460   14.2470 C.3    66  ARG66       0.0492
    141  CD        13.4380   -5.9670   14.3050 C.3    66  ARG66       0.2205
    142  NE        14.4270   -5.2440   15.1060 N.pl3  66  ARG66      -0.0865
    143  CZ        15.6370   -4.8790   14.6790 C.cat  66  ARG66       0.5346
    144  NH1       16.0290   -5.1560   13.4400 N.pl3  66  ARG66       0.1354
    145  NH2       16.4670   -4.2490   15.5030 N.pl3  66  ARG66       0.1354
    146  N         13.4600  -14.0790   12.0980 N.3    69  GLU69      -0.1245
    147  CA        13.7930  -14.7490   13.3630 C.3    69  GLU69       0.1567
    148  C         12.5530  -14.8790   14.2410 C.2    69  GLU69       0.2260
    149  O         12.6220  -15.4160   15.3490 O.2    69  GLU69      -0.2867
    150  CB        14.8560  -13.9470   14.1270 C.3    69  GLU69       0.0388
    151  CG        16.2370  -13.9660   13.4940 C.3    69  GLU69       0.1160
    152  CD        17.0680  -15.1540   13.9420 C.2    69  GLU69       0.3649
    153  OE1       16.4790  -16.2070   14.2720 O.co2  69  GLU69      -0.2457
    154  OE2       18.3140  -15.0380   13.9570 O.co2  69  GLU69      -0.2457
    155  N         15.2060  -15.0710   20.8400 N.3    75  CYS75      -0.1221
    156  CA        16.1300  -14.2460   20.0810 C.3    75  CYS75       0.1808
    157  C         15.6730  -12.8690   20.5340 C.2    75  CYS75       0.2602
    158  O         14.4740  -12.6390   20.6940 O.2    75  CYS75      -0.2717
    159  CB        15.8950  -14.4200   18.5810 C.3    75  CYS75       0.0970
    160  SG        17.0190  -13.4900   17.5340 S.3    75  CYS75      -0.0800
    161  N         16.6030  -11.9610   20.7810 N.am   76  SER76      -0.1938
    162  CA        16.2010  -10.6370   21.2170 C.3    76  SER76       0.2055
    163  C         16.9420   -9.5870   20.4130 C.2    76  SER76       0.2643
    164  O         18.1580   -9.4570   20.5210 O.2    76  SER76      -0.2714
    165  CB        16.4850  -10.4620   22.7100 C.3    76  SER76       0.2130
    166  OG        15.8040   -9.3300   23.2250 O.3    76  SER76      -0.2179
    167  N         16.2020   -8.8470   19.5970 N.am   77  PHE77      -0.1959
    168  CA        16.7990   -7.8140   18.7740 C.3    77  PHE77       0.1771
    169  C         16.8860   -6.5010   19.4980 C.2    77  PHE77       0.2620
    170  O         17.4580   -5.5400   18.9830 O.2    77  PHE77      -0.2715
    171  CB        15.9950   -7.5890   17.4980 C.3    77  PHE77       0.0574
    172  CG        16.2460   -8.6080   16.4460 C.ar   77  PHE77      -0.0200
    173  CD1       15.6200   -9.8470   16.4970 C.ar   77  PHE77      -0.0042
    174  CD2       17.1290   -8.3400   15.4070 C.ar   77  PHE77      -0.0042
    175  CE1       15.8670  -10.8010   15.5270 C.ar   77  PHE77      -0.0003
    176  CE2       17.3840   -9.2890   14.4310 C.ar   77  PHE77      -0.0003
    177  CZ        16.7520  -10.5230   14.4910 C.ar   77  PHE77      -0.0000
    178  N         16.3120   -6.4280   20.6870 N.am   78  ASP78      -0.1957
    179  CA        16.3740   -5.1600   21.3630 C.3    78  ASP78       0.1840
    180  C         17.2520   -5.1180   22.5980 C.2    78  ASP78       0.2621
    181  O         17.3070   -6.0460   23.4130 O.2    78  ASP78      -0.2715
    182  CB        14.9520   -4.6320   21.6100 C.3    78  ASP78       0.1450
    183  CG        14.5460   -4.6700   23.0560 C.2    78  ASP78       0.3671
    184  OD1       14.4240   -5.7810   23.6150 O.co2  78  ASP78      -0.2456
    185  OD2       14.3350   -3.5830   23.6350 O.co2  78  ASP78      -0.2456
    186  N         17.9770   -4.0120   22.6500 N.am   79  MET79      -0.1977
    187  CA        18.9350   -3.6460   23.6750 C.3    79  MET79       0.1605
    188  C         18.6430   -3.9110   25.1510 C.2    79  MET79       0.2287
    189  O         19.4550   -4.4900   25.8500 O.2    79  MET79      -0.2864
    190  CB        19.2210   -2.1590   23.5000 C.3    79  MET79       0.0413
    191  CG        20.3450   -1.9120   22.5620 C.3    79  MET79       0.0598
    192  SD        21.7840   -2.4710   23.4640 S.3    79  MET79      -0.1393
    193  CE        22.1160   -4.0510   22.7690 C.3    79  MET79       0.0692
    194  N          9.2590    7.3440    8.7980 N.3    99  GLU99      -0.1245
    195  CA        10.3170    7.7690    7.8950 C.3    99  GLU99       0.1567
    196  C         10.0770    7.5970    6.3900 C.2    99  GLU99       0.2260
    197  O         10.8200    8.1530    5.5710 O.2    99  GLU99      -0.2867
    198  CB        11.6130    7.0970    8.3490 C.3    99  GLU99       0.0388
    199  CG        11.8210    7.3420    9.8500 C.3    99  GLU99       0.1160
    200  CD        12.9790    6.5780   10.4710 C.2    99  GLU99       0.3649
    201  OE1       12.9280    6.3550   11.6980 O.co2  99  GLU99      -0.2457
    202  OE2       13.9310    6.2240    9.7490 O.co2  99  GLU99      -0.2457
@<TRIPOS>BOND
     1    86    84    1
     2    80    81    1
     3    81    84    1
     4    81    82    1
     5    66    65    2
     6    84    85    1
     7    26    27    1
     8    26    25    1
     9    82    83    2
    10    82    87   am
    11    65    64    1
    12    70    68    1
    13    25    24    1
    14    87    88    1
    15    64    67    1
    16    64    63    1
    17    74    73    2
    18   118   119    1
    19   118   117    1
    20    93    94    1
    21    67    68    1
    22    73    72    1
    23    89    88    1
    24    89    90    2
    25    68    69    1
    26   197   196    2
    27    71    72    1
    28    24    21    1
    29    88    91    1
    30     1     2    1
    31   112   113    1
    32   116   117    1
    33   116   113    1
    34    20    21    1
    35    21    22    1
    36    91    92    1
    37    72    75    1
    38    99    98    1
    39   113   114    1
    40    94    97    1
    41    94    95    1
    42   196   195    1
    43    97    98    1
    44     2     3    1
    45     2     5    1
    46   100    98    1
    47    56    57    1
    48    56    53    1
    49    95   101   am
    50    95    96    2
    51   101   102    1
    52    22    23    2
    53    22    28   am
    54    58    57    1
    55    58    59    1
    56    61    60    1
    57    75    76    1
    58   103   102    1
    59   103   104    2
    60    55    54    2
    61   114   115    2
    62   114   120   am
    63     3     4    2
    64     3    12   am
    65     5     6    1
    66    54    53    1
    67   195   198    1
    68   195   194    1
    69   105   102    1
    70   105   106    1
    71    12    13    1
    72    14    15    2
    73    14    13    1
    74    44    42    1
    75   198   199    1
    76    53    52    1
    77    76    77    1
    78    28    29    1
    79   120   121    1
    80    60    59    2
    81    60    62    1
    82    37    38    1
    83   106   107    1
    84    13    16    1
    85   129   130    1
    86     6     7    1
    87   134   133    1
    88    52    47   am
    89    42    41    1
    90    42    43    1
    91    38    41    1
    92    38    39    1
    93    16    17    1
    94   202   200   ar
    95   199   200    1
    96   130   133    1
    97   130   131    1
    98    77    79   ar
    99    77    78   ar
   100    29    30    1
   101    29    32    1
   102   121   122    1
   103   121   124    1
   104     7     8    1
   105   107   108    1
   106    30    31    2
   107    39    40    2
   108    39    45   am
   109    17    19   ar
   110    17    18   ar
   111   122   123    2
   112   200   201   ar
   113    47    48    2
   114    47    46    1
   115    45    46    1
   116     8     9    2
   117   124   125    1
   118    32    33    1
   119   108   109    2
   120   131   132    2
   121   131   135   am
   122   125   126    1
   123    46    49    1
   124    51    49    1
   125   127   126    2
   126     9    10    1
   127     9    11    1
   128   135   136    1
   129   126   128   am
   130   109   111    1
   131   109   110    1
   132   146   147    1
   133    49    50    1
   134    33    34    1
   135    35    34    2
   136   137   136    1
   137   137   138    2
   138    34    36   am
   139   136   139    1
   140   147   150    1
   141   147   148    1
   142   144   143    1
   143   151   152    1
   144   151   150    1
   145   139   140    1
   146   152   154   ar
   147   152   153   ar
   148   148   149    2
   149   140   141    1
   150   141   142    1
   151   176   177   ar
   152   176   174   ar
   153   177   175   ar
   154   143   142    2
   155   143   145    1
   156   174   172   ar
   157   175   173   ar
   158   172   173   ar
   159   172   171    1
   160   171   168    1
   161   160   159    1
   162   159   156    1
   163   168   169    1
   164   168   167    1
   165   170   169    2
   166   169   178   am
   167   167   163   am
   168   156   157    1
   169   156   155    1
   170   163   164    2
   171   163   162    1
   172   157   158    2
   173   157   161   am
   174   178   179    1
   175   161   162    1
   176   162   165    1
   177   179   182    1
   178   179   180    1
   179   182   183    1
   180   191   192    1
   181   191   190    1
   182   180   186   am
   183   180   181    2
   184   186   187    1
   185   165   166    1
   186   193   192    1
   187   183   184   ar
   188   183   185   ar
   189   190   187    1
   190   187   188    1
   191   188   189    2
