@<TRIPOS>MOLECULE
tmp/3buaD00.pdb
 218 206 0 0 0
SMALL
GASTEIGER

@<TRIPOS>ATOM
      1  N         34.3970  -43.7480   16.0990 N.3    37  ARG37      -0.1231
      2  CA        34.9280  -42.3880   16.1100 C.3    37  ARG37       0.1694
      3  C         33.8800  -41.4260   15.5560 C.2    37  ARG37       0.2592
      4  O         33.6420  -40.3570   16.1170 O.2    37  ARG37      -0.2718
      5  CB        36.1840  -42.3200   15.2380 C.3    37  ARG37       0.0321
      6  CG        36.6730  -40.9140   14.9500 C.3    37  ARG37       0.0489
      7  CD        37.5410  -40.8990   13.7060 C.3    37  ARG37       0.2205
      8  NE        36.7480  -41.0490   12.4890 N.pl3  37  ARG37      -0.0865
      9  CZ        37.2610  -41.1000   11.2640 C.cat  37  ARG37       0.5346
     10  NH1       38.5740  -41.0190   11.0910 N.pl3  37  ARG37       0.1354
     11  NH2       36.4620  -41.2130   10.2100 N.pl3  37  ARG37       0.1354
     12  N         33.2690  -41.8120   14.4400 N.am   38  ASP38      -0.1974
     13  CA        32.2460  -40.9930   13.8110 C.3    38  ASP38       0.1709
     14  C         31.0490  -40.8390   14.7390 C.2    38  ASP38       0.2293
     15  O         30.3910  -39.7990   14.7450 O.2    38  ASP38      -0.2864
     16  CB        31.7950  -41.6140   12.4870 C.3    38  ASP38       0.1436
     17  CG        32.9180  -41.6980   11.4740 C.2    38  ASP38       0.3671
     18  OD1       33.9360  -40.9910   11.6460 O.co2  38  ASP38      -0.2456
     19  OD2       32.7850  -42.4620   10.4970 O.co2  38  ASP38      -0.2456
     20  N         31.1980  -40.7940   18.0000 N.3    40  MET40      -0.1230
     21  CA        31.6240  -39.8410   19.0190 C.3    40  MET40       0.1702
     22  C         31.6360  -38.4130   18.4720 C.2    40  MET40       0.2592
     23  O         31.3590  -37.4640   19.2030 O.2    40  MET40      -0.2718
     24  CB        33.0040  -40.2310   19.5440 C.3    40  MET40       0.0401
     25  CG        32.9700  -41.4480   20.4620 C.3    40  MET40       0.0596
     26  SD        34.5590  -42.2830   20.6240 S.3    40  MET40      -0.1393
     27  CE        35.3810  -41.2650   21.7760 C.3    40  MET40       0.0692
     28  N         31.9500  -38.2640   17.1860 N.am   41  GLN41      -0.1979
     29  CA        31.9730  -36.9460   16.5680 C.3    41  GLN41       0.1601
     30  C         30.5670  -36.3660   16.5900 C.2    41  GLN41       0.2287
     31  O         30.3570  -35.2280   17.0210 O.2    41  GLN41      -0.2864
     32  CB        32.4620  -37.0300   15.1220 C.3    41  GLN41       0.0394
     33  CG        32.5610  -35.6730   14.4550 C.3    41  GLN41       0.0908
     34  CD        33.5090  -34.7380   15.1870 C.2    41  GLN41       0.2608
     35  OE1       33.3500  -33.5200   15.1420 O.2    41  GLN41      -0.2717
     36  NE2       34.5110  -35.3060   15.8520 N.am   41  GLN41      -0.0878
     37  N         29.6160  -34.9710   19.8800 N.3    44  LEU44      -0.1231
     38  CA        30.2180  -33.7430   20.3910 C.3    44  LEU44       0.1693
     39  C         29.4260  -32.4480   20.2180 C.2    44  LEU44       0.2592
     40  O         29.6860  -31.4720   20.9240 O.2    44  LEU44      -0.2718
     41  CB        31.6180  -33.5730   19.7970 C.3    44  LEU44       0.0284
     42  CG        32.5720  -34.7210   20.1440 C.3    44  LEU44       0.0019
     43  CD1       33.9270  -34.4820   19.4950 C.3    44  LEU44       0.0001
     44  CD2       32.7150  -34.8280   21.6550 C.3    44  LEU44       0.0001
     45  N         28.4710  -32.4190   19.2920 N.am   45  VAL45      -0.1966
     46  CA        27.6790  -31.2060   19.0890 C.3    45  VAL45       0.1727
     47  C         26.6480  -31.0660   20.2040 C.2    45  VAL45       0.2616
     48  O         26.0160  -30.0210   20.3560 O.2    45  VAL45      -0.2715
     49  CB        26.9270  -31.2250   17.7340 C.3    45  VAL45       0.0290
     50  CG1       27.9180  -31.2260   16.5920 C.3    45  VAL45       0.0023
     51  CG2       26.0220  -32.4390   17.6510 C.3    45  VAL45       0.0023
     52  N         26.5030  -32.1280   20.9890 N.am   46  ARG46      -0.1977
     53  CA        25.5410  -32.1780   22.0790 C.3    46  ARG46       0.1597
     54  C         26.0870  -31.7650   23.4380 C.2    46  ARG46       0.2287
     55  O         27.2960  -31.7670   23.6720 O.2    46  ARG46      -0.2864
     56  CB        24.9980  -33.5990   22.2110 C.3    46  ARG46       0.0334
     57  CG        24.2080  -34.1140   21.0250 C.3    46  ARG46       0.0492
     58  CD        22.7230  -33.9180   21.2450 C.3    46  ARG46       0.2205
     59  NE        22.2450  -32.6470   20.7190 N.pl3  46  ARG46      -0.0865
     60  CZ        21.0960  -32.0810   21.0690 C.cat  46  ARG46       0.5346
     61  NH1       20.3060  -32.6680   21.9570 N.pl3  46  ARG46       0.1354
     62  NH2       20.7270  -30.9370   20.5150 N.pl3  46  ARG46       0.1354
     63  N         27.5240  -31.9020   26.7480 N.3    48  LEU48      -0.1245
     64  CA        28.3020  -32.9180   27.4430 C.3    48  LEU48       0.1561
     65  C         28.3920  -32.6860   28.9540 C.2    48  LEU48       0.2260
     66  O         28.8050  -33.5770   29.6970 O.2    48  LEU48      -0.2867
     67  CB        29.7080  -33.0290   26.8300 C.3    48  LEU48       0.0270
     68  CG        29.7720  -33.8080   25.5110 C.3    48  LEU48       0.0019
     69  CD1       31.2000  -33.8670   24.9910 C.3    48  LEU48       0.0001
     70  CD2       29.2400  -35.2070   25.7390 C.3    48  LEU48       0.0001
     71  N         33.4590  -30.0260   30.6430 N.3    51  GLU51      -0.1245
     72  CA        34.6270  -30.5150   29.9150 C.3    51  GLU51       0.1567
     73  C         35.9230  -30.8940   30.6610 C.2    51  GLU51       0.2260
     74  O         36.9710  -31.0730   30.0420 O.2    51  GLU51      -0.2867
     75  CB        34.9240  -29.5030   28.8040 C.3    51  GLU51       0.0388
     76  CG        36.3780  -29.3030   28.4570 C.3    51  GLU51       0.1160
     77  CD        36.5850  -28.1820   27.4770 C.2    51  GLU51       0.3649
     78  OE1       35.7560  -27.2530   27.4620 O.co2  51  GLU51      -0.2457
     79  OE2       37.5850  -28.2220   26.7360 O.co2  51  GLU51      -0.2457
     80  N         36.2070  -35.3540   30.0670 N.3    54  VAL54      -0.1231
     81  CA        36.3440  -36.0820   28.8080 C.3    54  VAL54       0.1692
     82  C         37.3900  -35.4390   27.9000 C.2    54  VAL54       0.2592
     83  O         37.6140  -35.9030   26.7840 O.2    54  VAL54      -0.2718
     84  CB        35.0050  -36.1060   28.0410 C.3    54  VAL54       0.0266
     85  CG1       33.9750  -36.9210   28.8000 C.3    54  VAL54       0.0020
     86  CG2       34.5030  -34.6830   27.8420 C.3    54  VAL54       0.0020
     87  N         38.0270  -34.3750   28.3830 N.am   55  SER55      -0.1952
     88  CA        39.0240  -33.6590   27.5980 C.3    55  SER55       0.1924
     89  C         40.3290  -34.4250   27.4130 C.2    55  SER55       0.2314
     90  O         41.0320  -34.2170   26.4230 O.2    55  SER55      -0.2863
     91  CB        39.3170  -32.2880   28.2150 C.3    55  SER55       0.2116
     92  OG        40.0380  -32.4040   29.4230 O.3    55  SER55      -0.2180
     93  N         39.0330  -37.1520   25.0960 N.3    58  LEU58      -0.1231
     94  CA        38.9130  -36.5430   23.7770 C.3    58  LEU58       0.1693
     95  C         40.2390  -36.3190   23.0470 C.2    58  LEU58       0.2591
     96  O         40.3370  -36.5800   21.8510 O.2    58  LEU58      -0.2718
     97  CB        38.1670  -35.2120   23.9110 C.3    58  LEU58       0.0284
     98  CG        36.7100  -35.1430   23.4440 C.3    58  LEU58       0.0019
     99  CD1       36.1090  -36.5400   23.3180 C.3    58  LEU58       0.0001
    100  CD2       35.9150  -34.2840   24.4140 C.3    58  LEU58       0.0001
    101  N         41.2560  -35.8340   23.7550 N.am   59  ARG59      -0.1980
    102  CA        42.5510  -35.5740   23.1230 C.3    59  ARG59       0.1597
    103  C         43.2290  -36.8470   22.6190 C.2    59  ARG59       0.2287
    104  O         43.7800  -36.8640   21.5140 O.2    59  ARG59      -0.2864
    105  CB        43.4920  -34.8450   24.0890 C.3    59  ARG59       0.0334
    106  CG        43.0820  -33.4180   24.4370 C.3    59  ARG59       0.0492
    107  CD        43.1480  -32.4820   23.2320 C.3    59  ARG59       0.2205
    108  NE        42.9880  -31.0870   23.6330 N.pl3  59  ARG59      -0.0865
    109  CZ        42.3950  -30.1530   22.8950 C.cat  59  ARG59       0.5346
    110  NH1       41.8930  -30.4560   21.7030 N.pl3  59  ARG59       0.1354
    111  NH2       42.3050  -28.9110   23.3520 N.pl3  59  ARG59       0.1354
    112  N         41.7520  -39.5590   21.8190 N.3    61  MET61      -0.1230
    113  CA        40.9190  -40.0280   20.7170 C.3    61  MET61       0.1702
    114  C         41.3520  -39.3100   19.4470 C.2    61  MET61       0.2592
    115  O         41.4260  -39.9150   18.3740 O.2    61  MET61      -0.2718
    116  CB        39.4490  -39.7290   21.0050 C.3    61  MET61       0.0401
    117  CG        38.4650  -40.3980   20.0550 C.3    61  MET61       0.0596
    118  SD        38.3990  -42.1930   20.2310 S.3    61  MET61      -0.1393
    119  CE        38.1150  -42.7080   18.5510 C.3    61  MET61       0.0692
    120  N         41.6430  -38.0170   19.5760 N.am   62  GLN62      -0.1979
    121  CA        42.0850  -37.2100   18.4390 C.3    62  GLN62       0.1601
    122  C         43.3830  -37.7580   17.8850 C.2    62  GLN62       0.2287
    123  O         43.5210  -37.9570   16.6730 O.2    62  GLN62      -0.2864
    124  CB        42.3260  -35.7670   18.8630 C.3    62  GLN62       0.0394
    125  CG        41.0860  -34.9630   19.1080 C.3    62  GLN62       0.0908
    126  CD        41.4140  -33.5250   19.4060 C.2    62  GLN62       0.2608
    127  OE1       42.0000  -33.2130   20.4430 O.2    62  GLN62      -0.2717
    128  NE2       41.0480  -32.6340   18.4910 N.am   62  GLN62      -0.0878
    129  N         42.7950  -41.0770   16.1660 N.3    65  SER65      -0.1202
    130  CA        42.0700  -40.8880   14.9240 C.3    65  SER65       0.2020
    131  C         43.0320  -40.4390   13.8310 C.2    65  SER65       0.2618
    132  O         42.9950  -40.9570   12.7130 O.2    65  SER65      -0.2717
    133  CB        40.9690  -39.8440   15.1080 C.3    65  SER65       0.2103
    134  OG        40.0970  -40.2130   16.1490 O.3    65  SER65      -0.2182
    135  N         43.8910  -39.4780   14.1540 N.am   66  ARG66      -0.1979
    136  CA        44.8470  -38.9800   13.1810 C.3    66  ARG66       0.1597
    137  C         45.8500  -40.0650   12.8230 C.2    66  ARG66       0.2287
    138  O         46.2690  -40.1760   11.6670 O.2    66  ARG66      -0.2864
    139  CB        45.5510  -37.7360   13.7230 C.3    66  ARG66       0.0334
    140  CG        44.6750  -36.5020   13.6000 C.3    66  ARG66       0.0492
    141  CD        45.0230  -35.4250   14.6050 C.3    66  ARG66       0.2205
    142  NE        44.1020  -34.2960   14.5070 N.pl3  66  ARG66      -0.0865
    143  CZ        42.8060  -34.3510   14.8210 C.cat  66  ARG66       0.5346
    144  NH1       42.2640  -35.4850   15.2630 N.pl3  66  ARG66       0.1354
    145  NH2       42.0400  -33.2710   14.6850 N.pl3  66  ARG66       0.1354
    146  N         44.5480  -42.8490   10.4880 N.3    69  GLU69      -0.1245
    147  CA        44.3550  -42.3170    9.1420 C.3    69  GLU69       0.1567
    148  C         45.6440  -41.8170    8.4880 C.2    69  GLU69       0.2260
    149  O         45.6350  -41.3560    7.3430 O.2    69  GLU69      -0.2867
    150  CB        43.3390  -41.1740    9.1930 C.3    69  GLU69       0.0388
    151  CG        41.9090  -41.6330    9.3550 C.3    69  GLU69       0.1160
    152  CD        41.1680  -41.6390    8.0380 C.2    69  GLU69       0.3649
    153  OE1       41.8270  -41.8350    6.9990 O.co2  69  GLU69      -0.2457
    154  OE2       39.9350  -41.4540    8.0450 O.co2  69  GLU69      -0.2457
    155  N         45.8800  -37.6540    1.5100 N.3    74  ASP74      -0.1225
    156  CA        44.9270  -36.6980    0.9520 C.3    74  ASP74       0.1805
    157  C         43.8370  -36.3620    1.9570 C.2    74  ASP74       0.2598
    158  O         42.9670  -35.5320    1.6990 O.2    74  ASP74      -0.2718
    159  CB        44.2850  -37.2640   -0.3160 C.3    74  ASP74       0.1424
    160  CG        45.2830  -37.4520   -1.4380 C.2    74  ASP74       0.3668
    161  OD1       45.9030  -36.4470   -1.8490 O.co2  74  ASP74      -0.2456
    162  OD2       45.4460  -38.6010   -1.9060 O.co2  74  ASP74      -0.2456
    163  N         43.8900  -37.0300    3.1000 N.am   75  CYS75      -0.1956
    164  CA        42.9380  -36.8220    4.1770 C.3    75  CYS75       0.1843
    165  C         43.5100  -35.7340    5.0780 C.2    75  CYS75       0.2626
    166  O         44.7190  -35.6870    5.2970 O.2    75  CYS75      -0.2714
    167  CB        42.7610  -38.1340    4.9410 C.3    75  CYS75       0.0997
    168  SG        42.2920  -37.9820    6.6620 S.3    75  CYS75      -0.0797
    169  N         42.6610  -34.8500    5.5910 N.am   76  SER76      -0.1936
    170  CA        43.1620  -33.7810    6.4460 C.3    76  SER76       0.2055
    171  C         42.2600  -33.5080    7.6390 C.2    76  SER76       0.2643
    172  O         41.0340  -33.5390    7.5260 O.2    76  SER76      -0.2714
    173  CB        43.3410  -32.4980    5.6270 C.3    76  SER76       0.2130
    174  OG        44.3210  -31.6470    6.2020 O.3    76  SER76      -0.2179
    175  N         42.8820  -33.2530    8.7850 N.am   77  PHE77      -0.1959
    176  CA        42.1520  -32.9610   10.0080 C.3    77  PHE77       0.1771
    177  C         42.3260  -31.4960   10.3350 C.2    77  PHE77       0.2620
    178  O         41.7120  -30.9810   11.2700 O.2    77  PHE77      -0.2715
    179  CB        42.6740  -33.7900   11.1780 C.3    77  PHE77       0.0574
    180  CG        42.3880  -35.2500   11.0610 C.ar   77  PHE77      -0.0200
    181  CD1       43.0430  -36.0240   10.1090 C.ar   77  PHE77      -0.0042
    182  CD2       41.4640  -35.8580   11.9050 C.ar   77  PHE77      -0.0042
    183  CE1       42.7850  -37.3840    9.9990 C.ar   77  PHE77      -0.0003
    184  CE2       41.1970  -37.2200   11.8040 C.ar   77  PHE77      -0.0003
    185  CZ        41.8600  -37.9840   10.8490 C.ar   77  PHE77      -0.0000
    186  N         43.1820  -30.8220    9.5790 N.am   78  ASP78      -0.1957
    187  CA        43.3750  -29.4140    9.8310 C.3    78  ASP78       0.1840
    188  C         42.3230  -28.6730    9.0320 C.2    78  ASP78       0.2621
    189  O         41.9910  -29.0460    7.9080 O.2    78  ASP78      -0.2715
    190  CB        44.7770  -28.9540    9.4410 C.3    78  ASP78       0.1450
    191  CG        45.1850  -27.6860   10.1730 C.2    78  ASP78       0.3671
    192  OD1       44.5000  -26.6570   10.0040 O.co2  78  ASP78      -0.2456
    193  OD2       46.1770  -27.7220   10.9310 O.co2  78  ASP78      -0.2456
    194  N         41.7900  -27.6270    9.6450 N.am   79  MET79      -0.1977
    195  CA        40.7390  -26.8120    9.0610 C.3    79  MET79       0.1605
    196  C         41.3010  -25.7750    8.1000 C.2    79  MET79       0.2287
    197  O         40.7080  -25.4850    7.0630 O.2    79  MET79      -0.2864
    198  CB        39.9880  -26.1080   10.1910 C.3    79  MET79       0.0413
    199  CG        38.5160  -25.8880    9.9520 C.3    79  MET79       0.0598
    200  SD        37.5330  -26.7290   11.2090 S.3    79  MET79      -0.1393
    201  CE        36.4200  -27.6980   10.1720 C.3    79  MET79       0.0692
    202  N         49.1660  -30.7220   22.5590 N.3    95  MET95      -0.1245
    203  CA        48.1030  -30.3060   23.4530 C.3    95  MET95       0.1570
    204  C         48.0640  -31.2830   24.6140 C.2    95  MET95       0.2261
    205  O         47.8500  -30.8950   25.7610 O.2    95  MET95      -0.2867
    206  CB        46.7670  -30.2940   22.7180 C.3    95  MET95       0.0387
    207  CG        46.8010  -29.4610   21.4550 C.3    95  MET95       0.0595
    208  SD        45.1640  -29.0700   20.8600 S.3    95  MET95      -0.1393
    209  CE        44.9410  -30.3270   19.6480 C.3    95  MET95       0.0692
    210  N         48.3160  -30.2270   28.3790 N.3    99  GLU99      -0.1245
    211  CA        47.1510  -30.4970   29.2080 C.3    99  GLU99       0.1567
    212  C         47.2970  -31.6580   30.1870 C.2    99  GLU99       0.2260
    213  O         46.5970  -31.7150   31.2000 O.2    99  GLU99      -0.2867
    214  CB        45.9500  -30.7050   28.2860 C.3    99  GLU99       0.0388
    215  CG        45.8410  -29.5810   27.2630 C.3    99  GLU99       0.1160
    216  CD        44.7050  -29.7610   26.2870 C.2    99  GLU99       0.3649
    217  OE1       44.4460  -28.8190   25.5080 O.co2  99  GLU99      -0.2457
    218  OE2       44.0740  -30.8390   26.2940 O.co2  99  GLU99      -0.2457
@<TRIPOS>BOND
     1   162   160   ar
     2   161   160   ar
     3   160   159    1
     4   159   156    1
     5   156   155    1
     6   156   157    1
     7   158   157    2
     8   157   163   am
     9   163   164    1
    10   164   167    1
    11   164   165    1
    12   167   168    1
    13   165   166    2
    14   165   169   am
    15   169   170    1
    16   173   174    1
    17   173   170    1
    18   170   171    1
    19   153   152   ar
    20   197   196    2
    21   149   148    2
    22   172   171    2
    23   171   175   am
    24   189   188    2
    25   152   154   ar
    26   152   151    1
    27   196   195    1
    28   148   147    1
    29   175   176    1
    30   188   194   am
    31   188   187    1
    32   195   194    1
    33   195   198    1
    34   147   150    1
    35   147   146    1
    36   150   151    1
    37   190   187    1
    38   190   191    1
    39   186   187    1
    40   186   177   am
    41   199   198    1
    42   199   200    1
    43   183   181   ar
    44   183   185   ar
    45   192   191   ar
    46   176   177    1
    47   176   179    1
    48   181   180   ar
    49   201   200    1
    50   191   193   ar
    51    11     9    1
    52   177   178    2
    53    19    17   ar
    54   185   184   ar
    55   180   179    1
    56   180   182   ar
    57    10     9    1
    58     9     8    2
    59    17    18   ar
    60    17    16    1
    61   138   137    2
    62   184   182   ar
    63    16    13    1
    64     8     7    1
    65   132   131    2
    66   137   136    1
    67   136   139    1
    68   136   135    1
    69   140   139    1
    70   140   141    1
    71     7     6    1
    72    13    12    1
    73    13    14    1
    74   131   135   am
    75   131   130    1
    76    12     3   am
    77    33    32    1
    78    33    34    1
    79   142   141    1
    80   142   143    2
    81   145   143    1
    82    14    15    2
    83   143   144    1
    84   130   133    1
    85   130   129    1
    86     6     5    1
    87   133   134    1
    88    32    29    1
    89    35    34    2
    90    34    36   am
    91     5     2    1
    92     3     2    1
    93     3     4    2
    94     1     2    1
    95    29    30    1
    96    29    28    1
    97    30    31    2
    98    50    49    1
    99   123   122    2
   100    28    22   am
   101    51    49    1
   102    49    46    1
   103   122   121    1
   104    20    21    1
   105   115   114    2
   106   121   124    1
   107   121   120    1
   108    22    21    1
   109    22    23    2
   110   128   126   am
   111   119   118    1
   112   124   125    1
   113    21    24    1
   114    46    45    1
   115    46    47    1
   116   125   126    1
   117    45    39   am
   118   126   127    2
   119   114   120   am
   120   114   113    1
   121    43    42    1
   122    24    25    1
   123   209   208    1
   124    41    42    1
   125    41    38    1
   126    37    38    1
   127   117   118    1
   128   117   116    1
   129    42    44    1
   130    47    48    2
   131    47    52   am
   132    39    38    1
   133    39    40    2
   134    25    26    1
   135    62    60    1
   136    26    27    1
   137   113   116    1
   138   113   112    1
   139    59    60    2
   140    59    58    1
   141   208   207    1
   142    52    53    1
   143    57    58    1
   144    57    56    1
   145    60    61    1
   146   207   206    1
   147   104   103    2
   148   110   109    1
   149    96    95    2
   150    53    56    1
   151    53    54    1
   152   202   203    1
   153   103   102    1
   154   206   203    1
   155   109   111    1
   156   109   108    2
   157    95   101   am
   158    95    94    1
   159   102   101    1
   160   102   105    1
   161   107   108    1
   162   107   106    1
   163    99    98    1
   164    54    55    2
   165    98    97    1
   166    98   100    1
   167   203   204    1
   168    94    97    1
   169    94    93    1
   170   105   106    1
   171   204   205    2
   172    69    68    1
   173   217   216   ar
   174    68    70    1
   175    68    67    1
   176   216   218   ar
   177   216   215    1
   178    90    89    2
   179    79    77   ar
   180    63    64    1
   181    83    82    2
   182    67    64    1
   183   215   214    1
   184    89    88    1
   185    64    65    1
   186    78    77   ar
   187    77    76    1
   188    88    91    1
   189    88    87    1
   190    86    84    1
   191    82    87   am
   192    82    81    1
   193    84    85    1
   194    84    81    1
   195    91    92    1
   196   214   211    1
   197   210   211    1
   198    76    75    1
   199    75    72    1
   200    81    80    1
   201    65    66    2
   202   211   212    1
   203    72    71    1
   204    72    73    1
   205    74    73    2
   206   212   213    2
