@<TRIPOS>MOLECULE
tmp/3bugA00.pdb
 140 132 0 0 0
SMALL
GASTEIGER

@<TRIPOS>ATOM
      1  N        -24.1940   46.5070   83.0370 N.3    13  GLY13      -0.1210
      2  CA       -23.7870   46.7270   84.4240 C.3    13  GLY13       0.1956
      3  C        -23.8400   45.4990   85.3150 C.2    13  GLY13       0.2612
      4  O        -23.3610   45.5410   86.4470 O.2    13  GLY13      -0.2717
      5  N        -24.4050   44.4010   84.8080 N.am   14  GLN14      -0.1965
      6  CA       -24.6150   43.1940   85.6150 C.3    14  GLN14       0.1733
      7  C        -23.6950   42.0220   85.2430 C.2    14  GLN14       0.2616
      8  O        -23.9590   40.8850   85.6280 O.2    14  GLN14      -0.2715
      9  CB       -26.0780   42.7450   85.5440 C.3    14  GLN14       0.0408
     10  CG       -27.0810   43.7460   86.0970 C.3    14  GLN14       0.0908
     11  CD       -28.5010   43.2040   86.1020 C.2    14  GLN14       0.2608
     12  OE1      -28.7400   42.0460   85.7460 O.2    14  GLN14      -0.2717
     13  NE2      -29.4560   44.0420   86.5090 N.am   14  GLN14      -0.0878
     14  N        -22.6280   42.3070   84.4990 N.am   15  GLY15      -0.1955
     15  CA       -21.6400   41.2990   84.1330 C.3    15  GLY15       0.1869
     16  C        -22.0090   40.3950   82.9710 C.2    15  GLY15       0.2309
     17  O        -23.1280   40.4370   82.4620 O.2    15  GLY15      -0.2863
     18  N        -21.4560   33.8440   86.0460 N.3    32  LEU32      -0.1245
     19  CA       -20.7350   35.0840   85.8090 C.3    32  LEU32       0.1561
     20  C        -19.2490   34.7960   85.5920 C.2    32  LEU32       0.2260
     21  O        -18.6310   34.0410   86.3570 O.2    32  LEU32      -0.2867
     22  CB       -20.9240   36.0440   86.9860 C.3    32  LEU32       0.0270
     23  CG       -20.2480   37.4190   86.9130 C.3    32  LEU32       0.0019
     24  CD1      -21.0180   38.3260   85.9540 C.3    32  LEU32       0.0001
     25  CD2      -20.1490   38.0790   88.2910 C.3    32  LEU32       0.0001
     26  N        -15.5870   35.9600   85.7730 N.3    34  ASP34      -0.1239
     27  CA       -14.8290   36.9220   86.5920 C.3    34  ASP34       0.1674
     28  C        -13.3080   36.6810   86.5930 C.2    34  ASP34       0.2266
     29  O        -12.8130   35.7340   87.2280 O.2    34  ASP34      -0.2867
     30  CB       -15.3650   36.9180   88.0320 C.3    34  ASP34       0.1410
     31  CG       -14.7480   38.0110   88.9140 C.2    34  ASP34       0.3668
     32  OD1      -14.2620   39.0420   88.3940 O.co2  34  ASP34      -0.2456
     33  OD2      -14.7620   37.8490   90.1610 O.co2  34  ASP34      -0.2456
     34  N        -11.2450   38.6460   87.9960 N.3    36  GLY36      -0.1210
     35  CA       -10.7360   39.2910   89.2110 C.3    36  GLY36       0.1956
     36  C        -10.8060   38.4530   90.4800 C.2    36  GLY36       0.2612
     37  O        -10.4650   38.9390   91.5610 O.2    36  GLY36      -0.2717
     38  N        -11.2560   37.2030   90.3670 N.am   37  SER37      -0.1952
     39  CA       -11.2990   36.2880   91.5200 C.3    37  SER37       0.1924
     40  C        -11.0420   34.8640   91.0700 C.2    37  SER37       0.2314
     41  O        -10.9450   34.6100   89.8840 O.2    37  SER37      -0.2863
     42  CB       -12.6350   36.4080   92.2810 C.3    37  SER37       0.2116
     43  OG       -13.7130   35.8440   91.5540 O.3    37  SER37      -0.2180
     44  N        -17.1480   40.9660  101.1930 N.3    73  TYR73      -0.1241
     45  CA       -16.8280   42.1270  100.3660 C.3    73  TYR73       0.1605
     46  C        -17.1190   43.3810  101.1930 C.2    73  TYR73       0.2264
     47  O        -17.6550   43.2730  102.3060 O.2    73  TYR73      -0.2867
     48  CB       -17.6900   42.1430   99.0950 C.3    73  TYR73       0.0534
     49  CG       -17.4930   40.9820   98.1470 C.ar   73  TYR73      -0.0201
     50  CD1      -16.3400   40.8820   97.3580 C.ar   73  TYR73      -0.0009
     51  CD2      -18.4770   39.9960   98.0060 C.ar   73  TYR73      -0.0009
     52  CE1      -16.1580   39.8140   96.4640 C.ar   73  TYR73       0.0417
     53  CE2      -18.3040   38.9210   97.1130 C.ar   73  TYR73       0.0417
     54  CZ       -17.1420   38.8380   96.3470 C.ar   73  TYR73       0.1957
     55  OH       -16.9580   37.7820   95.4760 O.3    73  TYR73      -0.2866
     56  N        -19.3540   45.5880  100.1980 N.3    75  GLN75      -0.1245
     57  CA       -20.8140   45.5740  100.0530 C.3    75  GLN75       0.1566
     58  C        -21.4410   44.5490  101.0050 C.2    75  GLN75       0.2260
     59  O        -22.0900   44.9230  101.9830 O.2    75  GLN75      -0.2867
     60  CB       -21.2340   45.2730   98.5990 C.3    75  GLN75       0.0367
     61  CG       -20.4120   45.9500   97.4910 C.3    75  GLN75       0.0905
     62  CD       -19.0860   45.2530   97.2090 C.2    75  GLN75       0.2608
     63  OE1      -18.1790   45.2510   98.0480 O.2    75  GLN75      -0.2717
     64  NE2      -18.9630   44.6690   96.0170 N.am   75  GLN75      -0.0878
     65  N        -26.1160   40.7960   99.4610 N.3   109  LYS109     -0.1231
     66  CA       -25.8280   41.7460   98.3800 C.3   109  LYS109      0.1693
     67  C        -24.9100   41.1770   97.2940 C.2   109  LYS109      0.2592
     68  O        -24.1940   41.9200   96.6200 O.2   109  LYS109     -0.2718
     69  CB       -25.3020   43.0750   98.9470 C.3   109  LYS109      0.0285
     70  CG       -26.3200   43.7140   99.8780 C.3   109  LYS109      0.0035
     71  CD       -25.9340   45.0850  100.3780 C.3   109  LYS109      0.0206
     72  CE       -27.0590   45.5970  101.2750 C.3   109  LYS109      0.1093
     73  NZ       -26.9120   47.0320  101.6380 N.3   109  LYS109     -0.1314
     74  N        -24.9590   39.8590   97.1230 N.am  110  PHE110     -0.1976
     75  CA       -24.1860   39.1900   96.0910 C.3   110  PHE110      0.1639
     76  C        -25.0160   39.0330   94.8100 C.2   110  PHE110      0.2290
     77  O        -24.6870   39.6050   93.7760 O.2   110  PHE110     -0.2864
     78  CB       -23.6570   37.8380   96.5870 C.3   110  PHE110      0.0560
     79  CG       -22.7650   37.1420   95.5980 C.ar  110  PHE110     -0.0200
     80  CD1      -21.4650   37.5970   95.3650 C.ar  110  PHE110     -0.0042
     81  CD2      -23.2250   36.0380   94.8880 C.ar  110  PHE110     -0.0042
     82  CE1      -20.6390   36.9490   94.4430 C.ar  110  PHE110     -0.0003
     83  CE2      -22.4110   35.3970   93.9700 C.ar  110  PHE110     -0.0003
     84  CZ       -21.1160   35.8520   93.7500 C.ar  110  PHE110     -0.0000
     85  N        -28.0200   39.6310   92.1620 N.3   112  ILE112     -0.1245
     86  CA       -28.7500   40.8140   91.7170 C.3   112  ILE112      0.1561
     87  C        -30.1690   40.3920   91.3720 C.2   112  ILE112      0.2260
     88  O        -30.3700   39.4230   90.6340 O.2   112  ILE112     -0.2867
     89  CB       -28.0780   41.4730   90.4640 C.3   112  ILE112      0.0252
     90  CG1      -26.6180   41.8420   90.7510 C.3   112  ILE112      0.0019
     91  CG2      -28.8640   42.7130   90.0000 C.3   112  ILE112      0.0019
     92  CD1      -25.8100   42.2150   89.5130 C.3   112  ILE112      0.0001
     93  N        -28.0580   35.2230   86.1360 N.3   117  TRP117     -0.1241
     94  CA       -26.9730   34.3280   86.5300 C.3   117  TRP117      0.1605
     95  C        -27.0730   33.9010   88.0020 C.2   117  TRP117      0.2264
     96  O        -27.7040   34.5850   88.8090 O.2   117  TRP117     -0.2867
     97  CB       -25.5950   34.9310   86.1970 C.3   117  TRP117      0.0550
     98  CG       -25.3380   36.2610   86.7930 C.ar  117  TRP117      0.0003
     99  CD1      -25.5190   37.4730   86.1910 C.ar  117  TRP117      0.0946
    100  CD2      -24.8440   36.5360   88.1110 C.ar  117  TRP117      0.0152
    101  NE1      -25.1660   38.4860   87.0500 N.ar  117  TRP117     -0.2442
    102  CE2      -24.7520   37.9400   88.2370 C.ar  117  TRP117      0.0810
    103  CE3      -24.4660   35.7330   89.2000 C.ar  117  TRP117      0.0012
    104  CZ2      -24.3000   38.5620   89.4120 C.ar  117  TRP117      0.0191
    105  CZ3      -24.0140   36.3540   90.3620 C.ar  117  TRP117      0.0001
    106  CH2      -23.9380   37.7500   90.4560 C.ar  117  TRP117      0.0015
    107  N        -20.5480   32.3440   90.0570 N.3   120  ILE120     -0.1245
    108  CA       -19.3830   33.0810   89.6250 C.3   120  ILE120      0.1561
    109  C        -18.2860   32.0970   89.2250 C.2   120  ILE120      0.2260
    110  O        -18.0320   31.1280   89.9380 O.2   120  ILE120     -0.2867
    111  CB       -18.9270   34.1010   90.7220 C.3   120  ILE120      0.0252
    112  CG1      -17.6490   34.8470   90.3150 C.3   120  ILE120      0.0019
    113  CG2      -18.7640   33.4320   92.1160 C.3   120  ILE120      0.0019
    114  CD1      -17.5300   36.2230   91.0010 C.3   120  ILE120      0.0001
    115  N        -10.0130   42.9870   84.8900 N.3   218  ASP218     -0.1239
    116  CA       -11.1020   42.3790   85.6730 C.3   218  ASP218      0.1674
    117  C        -12.4760   42.4970   85.0230 C.2   218  ASP218      0.2266
    118  O        -13.1420   43.5370   85.1140 O.2   218  ASP218     -0.2867
    119  CB       -11.1290   42.9910   87.0770 C.3   218  ASP218      0.1410
    120  CG       -12.2450   42.4480   87.9400 C.2   218  ASP218      0.3668
    121  OD1      -12.8790   41.4360   87.5750 O.co2 218  ASP218     -0.2456
    122  OD2      -12.4970   43.0470   89.0030 O.co2 218  ASP218     -0.2456
    123  N        -15.1750   41.2230   85.9440 N.3   220  GLY220     -0.1210
    124  CA       -16.2680   41.2420   86.9150 C.3   220  GLY220      0.1956
    125  C        -16.6610   42.6360   87.3830 C.2   220  GLY220      0.2613
    126  O        -17.7220   42.8130   87.9840 O.2   220  GLY220     -0.2717
    127  N        -15.7920   43.6100   87.1130 N.am  221  THR221     -0.1938
    128  CA       -15.9980   45.0170   87.4540 C.3   221  THR221      0.2028
    129  C        -16.4680   45.7690   86.2130 C.2   221  THR221      0.2642
    130  O        -15.9850   45.5250   85.1010 O.2   221  THR221     -0.2714
    131  CB       -14.6710   45.6450   87.9530 C.3   221  THR221      0.1808
    132  OG1      -14.2200   44.9500   89.1210 O.3   221  THR221     -0.2208
    133  CG2      -14.8210   47.1270   88.2770 C.3   221  THR221      0.0379
    134  N        -17.4010   46.6900   86.4020 N.am  222  THR222     -0.1950
    135  CA       -17.9450   47.4690   85.2960 C.3   222  THR222      0.1897
    136  C        -17.0040   48.5930   84.8530 C.2   222  THR222      0.2313
    137  O        -16.6250   48.6610   83.6840 O.2   222  THR222     -0.2863
    138  CB       -19.3270   48.0390   85.6500 C.3   222  THR222      0.1794
    139  OG1      -20.2270   46.9530   85.8800 O.3   222  THR222     -0.2208
    140  CG2      -19.8780   48.8840   84.5200 C.3   222  THR222      0.0378
@<TRIPOS>BOND
     1    17    16    2
     2    16    15    1
     3     1     2    1
     4   137   136    2
     5    15    14    1
     6     2     3    1
     7    14     7   am
     8   140   138    1
     9     5     3   am
    10     5     6    1
    11   136   135    1
    12   115   116    1
    13   117   118    2
    14   117   116    1
    15   130   129    2
    16     7     6    1
    17     7     8    2
    18   135   138    1
    19   135   134    1
    20     3     4    2
    21     9     6    1
    22     9    10    1
    23    20    19    1
    24    20    21    2
    25   138   139    1
    26   116   119    1
    27    12    11    2
    28    26    27    1
    29    19    18    1
    30    19    22    1
    31   123   124    1
    32    24    23    1
    33    10    11    1
    34    11    13   am
    35    93    94    1
    36    99    98   ar
    37    99   101   ar
    38    97    94    1
    39    97    98    1
    40   129   134   am
    41   129   128    1
    42    94    95    1
    43    27    28    1
    44    27    30    1
    45    28    29    2
    46    98   100   ar
    47    23    22    1
    48    23    25    1
    49   124   125    1
    50   101   102   ar
    51   119   120    1
    52   127   125   am
    53   127   128    1
    54   125   126    2
    55   128   131    1
    56   121   120   ar
    57   120   122   ar
    58   131   133    1
    59   131   132    1
    60    34    35    1
    61    95    96    2
    62    30    31    1
    63   100   102   ar
    64   100   103   ar
    65   102   104   ar
    66    32    31   ar
    67    31    33   ar
    68   103   105   ar
    69    35    36    1
    70   109   108    1
    71   109   110    2
    72   104   106   ar
    73    92    90    1
    74   108   107    1
    75   108   111    1
    76    41    40    2
    77    91    89    1
    78   112   111    1
    79   112   114    1
    80   105   106   ar
    81    38    36   am
    82    38    39    1
    83    89    90    1
    84    89    86    1
    85    36    37    2
    86    88    87    2
    87   111   113    1
    88    40    39    1
    89    87    86    1
    90    39    42    1
    91    43    42    1
    92    86    85    1
    93    84    83   ar
    94    84    82   ar
    95    77    76    2
    96    83    81   ar
    97    82    80   ar
    98    76    75    1
    99    81    79   ar
   100    80    79   ar
   101    55    54    1
   102    79    78    1
   103    64    62   am
   104    75    78    1
   105    75    74    1
   106    54    52   ar
   107    54    53   ar
   108    52    50   ar
   109    68    67    2
   110    53    51   ar
   111    74    67   am
   112    62    61    1
   113    62    63    2
   114    67    66    1
   115    50    49   ar
   116    61    60    1
   117    51    49   ar
   118    49    48    1
   119    66    69    1
   120    66    65    1
   121    60    57    1
   122    69    70    1
   123    48    45    1
   124    70    71    1
   125    57    56    1
   126    57    58    1
   127    45    44    1
   128    45    46    1
   129    71    72    1
   130    58    59    2
   131    46    47    2
   132    72    73    1
