@<TRIPOS>MOLECULE
tmp/3buhA00.pdb
 131 124 0 0 0
SMALL
GASTEIGER

@<TRIPOS>ATOM
      1  N        -25.0200   46.1460   84.5690 N.3    16  GLY16      -0.1210
      2  CA       -24.6820   46.2580   85.9760 C.3    16  GLY16       0.1956
      3  C        -24.8660   44.9970   86.8140 C.2    16  GLY16       0.2612
      4  O        -24.5410   45.0190   88.0020 O.2    16  GLY16      -0.2717
      5  N        -25.3650   43.9110   86.2160 N.am   17  GLN17      -0.1965
      6  CA       -25.5860   42.6520   86.9440 C.3    17  GLN17       0.1733
      7  C        -24.6300   41.5200   86.5510 C.2    17  GLN17       0.2616
      8  O        -24.8960   40.3550   86.8400 O.2    17  GLN17      -0.2715
      9  CB       -27.0350   42.1710   86.7860 C.3    17  GLN17       0.0408
     10  CG       -28.0660   42.9320   87.6100 C.3    17  GLN17       0.0908
     11  CD       -29.4860   42.4390   87.3760 C.2    17  GLN17       0.2608
     12  OE1      -29.6970   41.3980   86.7490 O.2    17  GLN17      -0.2717
     13  NE2      -30.4590   43.1820   87.8810 N.am   17  GLN17      -0.0878
     14  N        -23.5240   41.8640   85.8970 N.am   18  GLY18      -0.1955
     15  CA       -22.5010   40.9010   85.5240 C.3    18  GLY18       0.1869
     16  C        -22.8520   39.9980   84.3520 C.2    18  GLY18       0.2309
     17  O        -24.0020   39.9560   83.8960 O.2    18  GLY18      -0.2863
     18  N        -22.1430   33.3710   87.0880 N.3    35  LEU35      -0.1245
     19  CA       -21.3760   34.5980   86.9160 C.3    35  LEU35       0.1561
     20  C        -19.9040   34.2960   86.6500 C.2    35  LEU35       0.2260
     21  O        -19.2830   33.5220   87.3720 O.2    35  LEU35      -0.2867
     22  CB       -21.5060   35.4690   88.1670 C.3    35  LEU35       0.0270
     23  CG       -20.8550   36.8460   88.1320 C.3    35  LEU35       0.0019
     24  CD1      -21.6890   37.8220   87.3050 C.3    35  LEU35       0.0001
     25  CD2      -20.6350   37.3780   89.5490 C.3    35  LEU35       0.0001
     26  N        -16.2560   35.4390   86.7980 N.3    37  ASP37      -0.1239
     27  CA       -15.5190   36.3720   87.6490 C.3    37  ASP37       0.1674
     28  C        -14.0090   36.1170   87.6220 C.2    37  ASP37       0.2266
     29  O        -13.5220   35.1720   88.2580 O.2    37  ASP37      -0.2867
     30  CB       -16.0640   36.2870   89.0820 C.3    37  ASP37       0.1410
     31  CG       -15.4250   37.3070   90.0340 C.2    37  ASP37       0.3668
     32  OD1      -14.8630   38.3200   89.5750 O.co2  37  ASP37      -0.2456
     33  OD2      -15.4530   37.1780   91.2740 O.co2  37  ASP37      -0.2456
     34  N        -11.9390   37.9800   89.0370 N.3    39  GLY39      -0.1210
     35  CA       -11.4030   38.5890   90.2460 C.3    39  GLY39       0.1956
     36  C        -11.5280   37.7390   91.4930 C.2    39  GLY39       0.2612
     37  O        -11.3150   38.2290   92.6020 O.2    39  GLY39      -0.2717
     38  N        -11.8880   36.4700   91.3240 N.am   40  SER40      -0.1952
     39  CA       -11.9790   35.5350   92.4440 C.3    40  SER40       0.1924
     40  C        -11.6700   34.1290   91.9560 C.2    40  SER40       0.2314
     41  O        -11.4900   33.9210   90.7550 O.2    40  SER40      -0.2863
     42  CB       -13.3460   35.6210   93.1340 C.3    40  SER40       0.2116
     43  OG       -14.3790   35.0870   92.3290 O.3    40  SER40      -0.2180
     44  N        -17.5170   40.0610  102.6990 N.3    76  TYR76      -0.1241
     45  CA       -17.3140   41.2160  101.8380 C.3    76  TYR76       0.1605
     46  C        -17.5260   42.4380  102.7190 C.2    76  TYR76       0.2264
     47  O        -18.0060   42.3050  103.8550 O.2    76  TYR76      -0.2867
     48  CB       -18.3450   41.2200  100.7070 C.3    76  TYR76       0.0534
     49  CG       -18.2430   40.0690   99.7330 C.ar   76  TYR76      -0.0201
     50  CD1      -17.2190   40.0170   98.7880 C.ar   76  TYR76      -0.0009
     51  CD2      -19.1940   39.0450   99.7350 C.ar   76  TYR76      -0.0009
     52  CE1      -17.1330   38.9620   97.8790 C.ar   76  TYR76       0.0417
     53  CE2      -19.1180   37.9870   98.8340 C.ar   76  TYR76       0.0417
     54  CZ       -18.0860   37.9500   97.9070 C.ar   76  TYR76       0.1957
     55  OH       -18.0040   36.9050   97.0150 O.3    76  TYR76      -0.2866
     56  N        -26.4930   40.0240  100.8020 N.3   112  LYS112     -0.1231
     57  CA       -26.1600   41.0310   99.7790 C.3   112  LYS112      0.1693
     58  C        -25.2830   40.4490   98.6690 C.2   112  LYS112      0.2592
     59  O        -24.4290   41.1220   98.1030 O.2   112  LYS112     -0.2718
     60  CB       -25.5200   42.2760  100.4150 C.3   112  LYS112      0.0285
     61  CG       -26.5160   43.0990  101.2310 C.3   112  LYS112      0.0035
     62  CD       -25.8620   44.2120  102.0420 C.3   112  LYS112      0.0206
     63  CE       -26.9220   44.9980  102.8100 C.3   112  LYS112      0.1093
     64  NZ       -26.3830   45.6790  104.0190 N.3   112  LYS112     -0.1314
     65  N        -25.5170   39.1810   98.3640 N.am  113  PHE113     -0.1976
     66  CA       -24.7150   38.4750   97.3870 C.3   113  PHE113      0.1639
     67  C        -25.5340   38.2780   96.1140 C.2   113  PHE113      0.2290
     68  O        -25.1490   38.7440   95.0370 O.2   113  PHE113     -0.2864
     69  CB       -24.2370   37.1420   97.9700 C.3   113  PHE113      0.0560
     70  CG       -23.4030   36.3360   97.0270 C.ar  113  PHE113     -0.0200
     71  CD1      -22.0990   36.7280   96.7160 C.ar  113  PHE113     -0.0042
     72  CD2      -23.9170   35.1880   96.4380 C.ar  113  PHE113     -0.0042
     73  CE1      -21.3210   35.9840   95.8400 C.ar  113  PHE113     -0.0003
     74  CE2      -23.1490   34.4410   95.5580 C.ar  113  PHE113     -0.0003
     75  CZ       -21.8470   34.8390   95.2550 C.ar  113  PHE113     -0.0000
     76  N        -28.5780   38.9120   93.5530 N.3   115  ILE115     -0.1245
     77  CA       -29.2800   40.1300   93.1560 C.3   115  ILE115      0.1561
     78  C        -30.7430   39.8130   92.8570 C.2   115  ILE115      0.2260
     79  O        -31.0420   38.9560   92.0230 O.2   115  ILE115     -0.2867
     80  CB       -28.6080   40.7820   91.9170 C.3   115  ILE115      0.0252
     81  CG1      -27.1690   41.2150   92.2220 C.3   115  ILE115      0.0019
     82  CG2      -29.4350   41.9740   91.4010 C.3   115  ILE115      0.0019
     83  CD1      -26.3430   41.4690   90.9640 C.3   115  ILE115      0.0001
     84  N        -28.7250   34.6610   87.4400 N.3   120  TRP120     -0.1241
     85  CA       -27.6380   33.7670   87.7960 C.3   120  TRP120      0.1605
     86  C        -27.7100   33.3060   89.2620 C.2   120  TRP120      0.2264
     87  O        -28.2940   33.9870   90.1200 O.2   120  TRP120     -0.2867
     88  CB       -26.2730   34.3750   87.4340 C.3   120  TRP120      0.0550
     89  CG       -25.9770   35.7100   88.0680 C.ar  120  TRP120      0.0003
     90  CD1      -26.1250   36.9430   87.4990 C.ar  120  TRP120      0.0946
     91  CD2      -25.4580   35.9390   89.3860 C.ar  120  TRP120      0.0152
     92  NE1      -25.7410   37.9240   88.3840 N.ar  120  TRP120     -0.2442
     93  CE2      -25.3230   37.3340   89.5490 C.ar  120  TRP120      0.0810
     94  CE3      -25.0900   35.1000   90.4530 C.ar  120  TRP120      0.0012
     95  CZ2      -24.8400   37.9070   90.7320 C.ar  120  TRP120      0.0191
     96  CZ3      -24.6170   35.6670   91.6210 C.ar  120  TRP120      0.0001
     97  CH2      -24.4960   37.0520   91.7540 C.ar  120  TRP120      0.0015
     98  N        -21.2210   31.5950   91.1150 N.3   123  ILE123     -0.1245
     99  CA       -20.0720   32.3630   90.6720 C.3   123  ILE123      0.1561
    100  C        -18.9310   31.4290   90.2790 C.2   123  ILE123      0.2260
    101  O        -18.6450   30.4420   90.9710 O.2   123  ILE123     -0.2867
    102  CB       -19.6580   33.3910   91.7620 C.3   123  ILE123      0.0252
    103  CG1      -18.4590   34.2230   91.3170 C.3   123  ILE123      0.0019
    104  CG2      -19.3820   32.7060   93.1160 C.3   123  ILE123      0.0019
    105  CD1      -18.1140   35.3360   92.3000 C.3   123  ILE123      0.0001
    106  N        -10.6800   42.3700   86.1860 N.3   221  ASP221     -0.1239
    107  CA       -11.7520   41.6910   86.9190 C.3   221  ASP221      0.1674
    108  C        -13.1120   41.8000   86.2200 C.2   221  ASP221      0.2266
    109  O        -13.7420   42.8610   86.2130 O.2   221  ASP221     -0.2867
    110  CB       -11.8270   42.2350   88.3490 C.3   221  ASP221      0.1410
    111  CG       -12.9910   41.6710   89.1320 C.2   221  ASP221      0.3668
    112  OD1      -13.5530   40.6220   88.7370 O.co2 221  ASP221     -0.2456
    113  OD2      -13.4190   42.2170   90.1680 O.co2 221  ASP221     -0.2456
    114  N        -15.8270   40.6180   87.1760 N.3   223  GLY223     -0.1210
    115  CA       -16.8930   40.6700   88.1750 C.3   223  GLY223      0.1956
    116  C        -17.2210   42.0680   88.6940 C.2   223  GLY223      0.2613
    117  O        -18.1960   42.2440   89.4210 O.2   223  GLY223     -0.2717
    118  N        -16.4010   43.0510   88.3240 N.am  224  THR224     -0.1938
    119  CA       -16.5930   44.4520   88.7020 C.3   224  THR224      0.2028
    120  C        -17.0950   45.2350   87.4940 C.2   224  THR224      0.2642
    121  O        -16.5730   45.0840   86.3920 O.2   224  THR224     -0.2714
    122  CB       -15.2580   45.0500   89.1800 C.3   224  THR224      0.1808
    123  OG1      -14.8150   44.3720   90.3630 O.3   224  THR224     -0.2208
    124  CG2      -15.4180   46.4990   89.6250 C.3   224  THR224      0.0379
    125  N        -18.1070   46.0700   87.7090 N.am  225  THR225     -0.1950
    126  CA       -18.6600   46.9170   86.6620 C.3   225  THR225      0.1897
    127  C        -17.7050   48.0590   86.2880 C.2   225  THR225      0.2313
    128  O        -17.4350   48.3130   85.1100 O.2   225  THR225     -0.2863
    129  CB       -20.0120   47.5040   87.1300 C.3   225  THR225      0.1794
    130  OG1      -20.9820   46.4550   87.2420 O.3   225  THR225     -0.2208
    131  CG2      -20.6040   48.4000   86.0670 C.3   225  THR225      0.0378
@<TRIPOS>BOND
     1    17    16    2
     2    16    15    1
     3     1     2    1
     4   128   127    2
     5    15    14    1
     6    14     7   am
     7     2     3    1
     8   131   129    1
     9   106   107    1
    10   109   108    2
    11     5     3   am
    12     5     6    1
    13   108   107    1
    14   127   126    1
    15   121   120    2
    16     7     8    2
    17     7     6    1
    18    20    19    1
    19    20    21    2
    20   126   129    1
    21   126   125    1
    22    12    11    2
    23     9     6    1
    24     9    10    1
    25    26    27    1
    26     3     4    2
    27    19    18    1
    28    19    22    1
    29   107   110    1
    30   129   130    1
    31   114   115    1
    32    24    23    1
    33    11    10    1
    34    11    13   am
    35    88    85    1
    36    88    89    1
    37    84    85    1
    38   120   125   am
    39   120   119    1
    40    90    89   ar
    41    90    92   ar
    42    28    27    1
    43    28    29    2
    44    27    30    1
    45    85    86    1
    46    89    91   ar
    47    23    22    1
    48    23    25    1
    49   115   116    1
    50   118   116   am
    51   118   119    1
    52   110   111    1
    53    92    93   ar
    54   116   117    2
    55   119   122    1
    56   112   111   ar
    57    34    35    1
    58    30    31    1
    59   111   113   ar
    60   122   124    1
    61   122   123    1
    62    86    87    2
    63    91    93   ar
    64    91    94   ar
    65    93    95   ar
    66    32    31   ar
    67    31    33   ar
    68    35    36    1
    69   100    99    1
    70   100   101    2
    71    94    96   ar
    72    99    98    1
    73    99   102    1
    74    95    97   ar
    75    41    40    2
    76    83    81    1
    77   103   102    1
    78   103   105    1
    79    38    36   am
    80    38    39    1
    81    82    80    1
    82    36    37    2
    83    96    97   ar
    84   102   104    1
    85    80    81    1
    86    80    77    1
    87    40    39    1
    88    79    78    2
    89    43    42    1
    90    39    42    1
    91    78    77    1
    92    77    76    1
    93    68    67    2
    94    75    74   ar
    95    75    73   ar
    96    74    72   ar
    97    73    71   ar
    98    67    66    1
    99    72    70   ar
   100    71    70   ar
   101    55    54    1
   102    70    69    1
   103    66    69    1
   104    66    65    1
   105    52    54   ar
   106    52    50   ar
   107    54    53   ar
   108    59    58    2
   109    65    58   am
   110    58    57    1
   111    50    49   ar
   112    53    51   ar
   113    49    51   ar
   114    49    48    1
   115    57    60    1
   116    57    56    1
   117    60    61    1
   118    48    45    1
   119    61    62    1
   120    45    44    1
   121    45    46    1
   122    62    63    1
   123    46    47    2
   124    63    64    1
