@<TRIPOS>MOLECULE
tmp/3bumB00.pdb
 163 159 0 0 0
SMALL
GASTEIGER

@<TRIPOS>ATOM
      1  N         65.0820   45.7410    3.3380 N.3    32  ASN32      -0.1225
      2  CA        65.4730   44.3340    3.3930 C.3    32  ASN32       0.1785
      3  C         66.0530   43.7550    2.0890 C.2    32  ASN32       0.2598
      4  O         66.3920   42.5590    2.0240 O.2    32  ASN32      -0.2718
      5  CB        64.2780   43.4710    3.8210 C.3    32  ASN32       0.1169
      6  CG        64.2030   43.2710    5.3280 C.2    32  ASN32       0.2627
      7  OD1       64.1420   44.2390    6.0970 O.2    32  ASN32      -0.2716
      8  ND2       64.2030   42.0070    5.7620 N.am   32  ASN32      -0.0877
      9  N         66.1770   44.5790    1.0560 N.am   33  SER33      -0.1938
     10  CA        66.6910   44.0710   -0.1990 C.3    33  SER33       0.2040
     11  C         68.2000   43.7550   -0.2340 C.2    33  SER33       0.2485
     12  O         69.0290   44.4750    0.3510 O.2    33  SER33      -0.2729
     13  CB        66.3310   45.0280   -1.3360 C.3    33  SER33       0.2129
     14  OG        66.8960   46.3020   -1.1340 O.3    33  SER33      -0.2179
     15  N         68.5670   42.6490   -0.8920 N.am   34  PRO34      -0.2726
     16  CA        69.9740   42.2690   -0.9880 C.3    34  PRO34       0.1402
     17  C         70.7500   43.4150   -1.6770 C.2    34  PRO34       0.2269
     18  O         70.2550   44.0070   -2.6360 O.2    34  PRO34      -0.2865
     19  CB        69.9230   41.0030   -1.8410 C.3    34  PRO34       0.0296
     20  CG        68.6220   40.3790   -1.4210 C.3    34  PRO34       0.0237
     21  CD        67.6860   41.5650   -1.3620 C.3    34  PRO34       0.0939
     22  N         71.2580   46.7100   -6.3990 N.3   227  TYR227     -0.1227
     23  CA        70.0180   46.7990   -7.1310 C.3   227  TYR227      0.1736
     24  C         69.2700   48.1040   -6.8380 C.2   227  TYR227      0.2595
     25  O         68.8360   48.8120   -7.7590 O.2   227  TYR227     -0.2718
     26  CB        69.1470   45.5870   -6.7730 C.3   227  TYR227      0.0548
     27  CG        67.8310   45.4970   -7.5110 C.ar  227  TYR227     -0.0200
     28  CD1       66.7520   46.3300   -7.1690 C.ar  227  TYR227     -0.0009
     29  CD2       67.6510   44.5700   -8.5360 C.ar  227  TYR227     -0.0009
     30  CE1       65.5270   46.2360   -7.8290 C.ar  227  TYR227      0.0417
     31  CE2       66.4160   44.4660   -9.2090 C.ar  227  TYR227      0.0417
     32  CZ        65.3660   45.3010   -8.8460 C.ar  227  TYR227      0.1957
     33  OH        64.1510   45.1980   -9.4980 O.3   227  TYR227     -0.2866
     34  N         69.1410   48.4310   -5.5560 N.am  228  ASP228     -0.1974
     35  CA        68.4480   49.6430   -5.1730 C.3   228  ASP228      0.1709
     36  C         69.1410   50.9280   -5.6460 C.2   228  ASP228      0.2293
     37  O         68.4790   51.9090   -5.9680 O.2   228  ASP228     -0.2864
     38  CB        68.2420   49.6880   -3.6530 C.3   228  ASP228      0.1436
     39  CG        67.0460   48.8590   -3.1860 C.2   228  ASP228      0.3671
     40  OD1       66.2350   48.3810   -4.0180 O.co2 228  ASP228     -0.2456
     41  OD2       66.9130   48.6880   -1.9570 O.co2 228  ASP228     -0.2456
     42  N         75.9160   46.1650  -13.9950 N.3   247  ARG247     -0.1245
     43  CA        76.7790   45.8300  -12.8750 C.3   247  ARG247      0.1563
     44  C         76.7840   44.3290  -12.5500 C.2   247  ARG247      0.2260
     45  O         76.0530   43.5380  -13.1620 O.2   247  ARG247     -0.2867
     46  CB        76.2430   46.5410  -11.6440 C.3   247  ARG247      0.0307
     47  CG        74.7590   46.1850  -11.4250 C.3   247  ARG247      0.0489
     48  CD        74.2760   46.3570   -9.9990 C.3   247  ARG247      0.2205
     49  NE        73.2690   45.3410   -9.6840 N.pl3 247  ARG247     -0.0865
     50  CZ        71.9700   45.5660   -9.6910 C.cat 247  ARG247      0.5346
     51  NH1       71.5370   46.7780   -9.9800 N.pl3 247  ARG247      0.1354
     52  NH2       71.1070   44.5910   -9.4470 N.pl3 247  ARG247      0.1354
     53  N         75.7090   41.2360  -10.5810 N.3   249  SER249     -0.1202
     54  CA        74.5980   40.8710   -9.7620 C.3   249  SER249      0.2020
     55  C         75.1220   40.4470   -8.3950 C.2   249  SER249      0.2619
     56  O         76.0980   39.7030   -8.3140 O.2   249  SER249     -0.2717
     57  CB        73.8390   39.7020  -10.3980 C.3   249  SER249      0.2103
     58  OG        72.9840   39.0740   -9.4630 O.3   249  SER249     -0.2182
     59  N         74.4940   40.9320   -7.3340 N.am  250  CYS250     -0.1955
     60  CA        74.9020   40.5830   -5.9820 C.3   250  CYS250      0.1843
     61  C         74.5250   39.1410   -5.5510 C.2   250  CYS250      0.2626
     62  O         75.3660   38.4060   -5.0180 O.2   250  CYS250     -0.2714
     63  CB        74.3060   41.6130   -5.0100 C.3   250  CYS250      0.0997
     64  SG        74.5020   41.3020   -3.2330 S.3   250  CYS250     -0.0797
     65  N         73.2810   38.7370   -5.8040 N.am  251  THR251     -0.1936
     66  CA        72.7980   37.4000   -5.4180 C.3   251  THR251      0.2028
     67  C         73.1120   36.2590   -6.4050 C.2   251  THR251      0.2642
     68  O         73.0080   35.0890   -6.0740 O.2   251  THR251     -0.2714
     69  CB        71.2730   37.4310   -5.1470 C.3   251  THR251      0.1808
     70  OG1       70.5740   37.7830   -6.3470 O.3   251  THR251     -0.2208
     71  CG2       70.9610   38.4670   -4.0760 C.3   251  THR251      0.0379
     72  N         73.4710   36.6260   -7.6220 N.am  252  ARG252     -0.1977
     73  CA        73.8510   35.6670   -8.6450 C.3   252  ARG252      0.1597
     74  C         75.2950   35.9580   -9.0950 C.2   252  ARG252      0.2287
     75  O         75.5480   36.1510  -10.2780 O.2   252  ARG252     -0.2864
     76  CB        72.9250   35.7860   -9.8570 C.3   252  ARG252      0.0334
     77  CG        71.4830   36.2490   -9.5630 C.3   252  ARG252      0.0492
     78  CD        70.5130   35.1000   -9.4520 C.3   252  ARG252      0.2205
     79  NE        69.1740   35.4070   -9.9630 N.pl3 252  ARG252     -0.0865
     80  CZ        68.2190   36.0580   -9.3000 C.cat 252  ARG252      0.5346
     81  NH1       68.4270   36.5040   -8.0650 N.pl3 252  ARG252      0.1354
     82  NH2       67.0270   36.2300   -9.8700 N.pl3 252  ARG252      0.1354
     83  N         73.7510   42.0780  -14.2830 N.3   257  ALA257     -0.1245
     84  CA        72.4440   42.6580  -14.0430 C.3   257  ALA257      0.1562
     85  C         72.3400   44.0100  -14.7330 C.2   257  ALA257      0.2260
     86  O         73.0640   44.9590  -14.3690 O.2   257  ALA257     -0.2867
     87  CB        72.1930   42.8240  -12.5280 C.3   257  ALA257      0.0290
     88  N         67.4400   49.3340  -16.7570 N.3   260  TYR260     -0.1241
     89  CA        67.0690   50.2270  -17.8500 C.3   260  TYR260      0.1605
     90  C         65.6760   50.8670  -17.7490 C.2   260  TYR260      0.2264
     91  O         64.7520   50.3240  -17.1180 O.2   260  TYR260     -0.2867
     92  CB        67.1770   49.4840  -19.1920 C.3   260  TYR260      0.0534
     93  CG        66.1800   48.3420  -19.3400 C.ar  260  TYR260     -0.0201
     94  CD1       66.3670   47.1360  -18.6710 C.ar  260  TYR260     -0.0009
     95  CD2       65.0640   48.4630  -20.1760 C.ar  260  TYR260     -0.0009
     96  CE1       65.4710   46.0700  -18.8330 C.ar  260  TYR260      0.0417
     97  CE2       64.1610   47.4080  -20.3430 C.ar  260  TYR260      0.0417
     98  CZ        64.3750   46.2090  -19.6690 C.ar  260  TYR260      0.1957
     99  OH        63.4970   45.1380  -19.8460 O.3   260  TYR260     -0.2866
    100  N         63.3400   48.5320  -15.1490 N.3   268  LEU268     -0.1231
    101  CA        63.5370   47.1340  -14.9600 C.3   268  LEU268      0.1693
    102  C         64.9960   46.7020  -14.9160 C.2   268  LEU268      0.2592
    103  O         65.8870   47.3940  -15.4210 O.2   268  LEU268     -0.2718
    104  CB        62.8270   46.3770  -16.0800 C.3   268  LEU268      0.0284
    105  CG        61.3460   46.7140  -16.3200 C.3   268  LEU268      0.0019
    106  CD1       60.8390   45.9220  -17.5230 C.3   268  LEU268      0.0001
    107  CD2       60.5240   46.4110  -15.0600 C.3   268  LEU268      0.0001
    108  N         65.2230   45.5610  -14.2840 N.am  269  GLN269     -0.1966
    109  CA        66.5360   44.9760  -14.2320 C.3   269  GLN269      0.1733
    110  C         66.5000   43.5220  -14.7060 C.2   269  GLN269      0.2617
    111  O         65.5810   42.7790  -14.3600 O.2   269  GLN269     -0.2715
    112  CB        67.1410   45.1210  -12.8220 C.3   269  GLN269      0.0408
    113  CG        67.5030   46.5830  -12.5490 C.3   269  GLN269      0.0908
    114  CD        68.1770   46.8370  -11.2150 C.2   269  GLN269      0.2608
    115  OE1       67.6020   47.4970  -10.3220 O.2   269  GLN269     -0.2717
    116  NE2       69.3910   46.3490  -11.0690 N.am  269  GLN269     -0.0878
    117  N         67.4720   43.1550  -15.5370 N.am  270  THR270     -0.1937
    118  CA        67.5750   41.8210  -16.1140 C.3   270  THR270      0.2028
    119  C         68.9220   41.1820  -15.9460 C.2   270  THR270      0.2642
    120  O         69.9490   41.8600  -15.8630 O.2   270  THR270     -0.2714
    121  CB        67.4550   41.8010  -17.6520 C.3   270  THR270      0.1808
    122  OG1       67.2270   43.1230  -18.1440 O.3   270  THR270     -0.2208
    123  CG2       66.4280   40.8300  -18.0990 C.3   270  THR270      0.0379
    124  N         68.9000   39.8610  -15.9760 N.am  271  ILE271     -0.1977
    125  CA        70.0840   39.0610  -15.9340 C.3   271  ILE271      0.1596
    126  C         70.1840   38.3030  -17.2720 C.2   271  ILE271      0.2287
    127  O         69.3780   37.3920  -17.5540 O.2   271  ILE271     -0.2864
    128  CB        70.0410   38.0370  -14.7760 C.3   271  ILE271      0.0276
    129  CG1       70.0940   38.7580  -13.4260 C.3   271  ILE271      0.0022
    130  CG2       71.1990   37.0520  -14.9010 C.3   271  ILE271      0.0022
    131  CD1       70.1280   37.8020  -12.2480 C.3   271  ILE271      0.0001
    132  N         67.6350   46.7850  -30.6840 N.3   287  GLU287     -0.1245
    133  CA        66.1980   46.7140  -30.4930 C.3   287  GLU287      0.1567
    134  C         65.6260   47.9220  -29.7590 C.2   287  GLU287      0.2260
    135  O         64.4470   47.9590  -29.4370 O.2   287  GLU287     -0.2867
    136  CB        65.8450   45.3910  -29.7980 C.3   287  GLU287      0.0388
    137  CG        66.3840   44.1740  -30.5880 C.3   287  GLU287      0.1160
    138  CD        66.2210   42.8270  -29.8790 C.2   287  GLU287      0.3649
    139  OE1       66.4180   42.7480  -28.6460 O.co2 287  GLU287     -0.2457
    140  OE2       65.9230   41.8280  -30.5710 O.co2 287  GLU287     -0.2457
    141  N         66.4930   49.1770  -26.6630 N.3   289  PHE289     -0.1227
    142  CA        66.3430   49.0950  -25.2090 C.3   289  PHE289      0.1736
    143  C         67.5000   49.6960  -24.4180 C.2   289  PHE289      0.2595
    144  O         67.2930   50.3110  -23.3530 O.2   289  PHE289     -0.2718
    145  CB        66.1370   47.6330  -24.7780 C.3   289  PHE289      0.0547
    146  CG        64.8760   47.0130  -25.3180 C.ar  289  PHE289     -0.0202
    147  CD1       63.6270   47.4220  -24.8480 C.ar  289  PHE289     -0.0042
    148  CD2       64.9310   46.0230  -26.2970 C.ar  289  PHE289     -0.0042
    149  CE1       62.4520   46.8600  -25.3430 C.ar  289  PHE289     -0.0003
    150  CE2       63.7530   45.4470  -26.8020 C.ar  289  PHE289     -0.0003
    151  CZ        62.5100   45.8700  -26.3210 C.ar  289  PHE289     -0.0000
    152  N         68.7130   49.4630  -24.9040 N.am  290  TYR290     -0.1976
    153  CA        69.9040   49.9860  -24.2820 C.3   290  TYR290      0.1639
    154  C         70.5810   51.0090  -25.1950 C.2   290  TYR290      0.2290
    155  O         71.5070   50.6920  -25.9360 O.2   290  TYR290     -0.2864
    156  CB        70.8700   48.8490  -23.9610 C.3   290  TYR290      0.0560
    157  CG        70.2230   47.6810  -23.2480 C.ar  290  TYR290     -0.0198
    158  CD1       69.2060   47.8760  -22.3080 C.ar  290  TYR290     -0.0009
    159  CD2       70.6450   46.3840  -23.4910 C.ar  290  TYR290     -0.0009
    160  CE1       68.6270   46.7940  -21.6310 C.ar  290  TYR290      0.0417
    161  CE2       70.0850   45.3030  -22.8250 C.ar  290  TYR290      0.0417
    162  CZ        69.0790   45.5090  -21.8980 C.ar  290  TYR290      0.1957
    163  OH        68.5440   44.4170  -21.2430 O.3   290  TYR290     -0.2866
@<TRIPOS>BOND
     1   132   133    1
     2   137   138    1
     3   137   136    1
     4   140   138   ar
     5   133   136    1
     6   133   134    1
     7   138   139   ar
     8   134   135    2
     9   150   151   ar
    10   150   148   ar
    11   141   142    1
    12   151   149   ar
    13   148   146   ar
    14   155   154    2
    15   149   147   ar
    16   146   147   ar
    17   146   145    1
    18   142   145    1
    19   142   143    1
    20   154   153    1
    21   152   143   am
    22   152   153    1
    23   143   144    2
    24   153   156    1
    25   156   157    1
    26   159   157   ar
    27   159   161   ar
    28   157   158   ar
    29   161   162   ar
    30   158   160   ar
    31   162   160   ar
    32   162   163    1
    33    97    95   ar
    34    97    98   ar
    35    95    93   ar
    36    99    98    1
    37    98    96   ar
    38    93    92    1
    39    93    94   ar
    40    92    89    1
    41    96    94   ar
    42   122   121    1
    43   123   121    1
    44    89    90    1
    45    89    88    1
    46    90    91    2
    47   121   118    1
    48   127   126    2
    49   106   105    1
    50   126   125    1
    51   105   104    1
    52   105   107    1
    53   118   119    1
    54   118   117    1
    55   104   101    1
    56   124   119   am
    57   124   125    1
    58   119   120    2
    59   125   128    1
    60   117   110   am
    61   103   102    2
    62   100   101    1
    63   101   102    1
    64   102   108   am
    65   130   128    1
    66   128   129    1
    67    85    86    2
    68    85    84    1
    69   110   111    2
    70   110   109    1
    71   108   109    1
    72    83    84    1
    73   109   112    1
    74    84    87    1
    75    42    43    1
    76   129   131    1
    77    45    44    2
    78    43    44    1
    79    43    46    1
    80   112   113    1
    81   113   114    1
    82    46    47    1
    83    47    48    1
    84   114   116   am
    85   114   115    2
    86    53    54    1
    87    57    54    1
    88    57    58    1
    89    75    74    2
    90    48    49    1
    91    51    50    1
    92    79    78    1
    93    79    80    2
    94    82    80    1
    95    76    77    1
    96    76    73    1
    97    54    55    1
    98    50    49    2
    99    50    52    1
   100    77    78    1
   101    33    32    1
   102    80    81    1
   103    31    32   ar
   104    31    29   ar
   105    74    73    1
   106    32    30   ar
   107    73    72    1
   108    29    27   ar
   109    55    56    2
   110    55    59   am
   111    30    28   ar
   112    25    24    2
   113    72    67   am
   114    27    28   ar
   115    27    26    1
   116    59    60    1
   117    23    24    1
   118    23    26    1
   119    23    22    1
   120    24    34   am
   121    67    68    2
   122    67    66    1
   123    70    69    1
   124    60    61    1
   125    60    63    1
   126    37    36    2
   127    65    61   am
   128    65    66    1
   129    36    35    1
   130    34    35    1
   131    61    62    2
   132    66    69    1
   133    35    38    1
   134    69    71    1
   135    63    64    1
   136    40    39   ar
   137    38    39    1
   138    39    41   ar
   139    18    17    2
   140    19    20    1
   141    19    16    1
   142    17    16    1
   143    20    21    1
   144    21    15    1
   145    13    14    1
   146    13    10    1
   147    16    15    1
   148    15    11   am
   149    11    10    1
   150    11    12    2
   151    10     9    1
   152     9     3   am
   153     4     3    2
   154     3     2    1
   155     1     2    1
   156     2     5    1
   157     5     6    1
   158     6     8   am
   159     6     7    2
