@<TRIPOS>MOLECULE
tmp/3bunB00.pdb
 181 178 0 0 0
SMALL
GASTEIGER

@<TRIPOS>ATOM
      1  N         56.5130  -44.5760    6.2140 N.3    33  SER33      -0.1203
      2  CA        55.9010  -43.9920    5.0550 C.3    33  SER33       0.2005
      3  C         54.4180  -43.6790    5.0950 C.2    33  SER33       0.2460
      4  O         53.6210  -44.3710    5.7380 O.2    33  SER33      -0.2732
      5  CB        56.1900  -44.8590    3.8330 C.3    33  SER33       0.2103
      6  OG        56.0340  -46.2090    4.1540 O.3    33  SER33      -0.2182
      7  N         54.0310  -42.6120    4.3960 N.am   34  PRO34      -0.2728
      8  CA        52.6320  -42.1950    4.3240 C.3    34  PRO34       0.1401
      9  C         51.8480  -43.3380    3.6360 C.2    34  PRO34       0.2269
     10  O         52.2940  -43.8770    2.6050 O.2    34  PRO34      -0.2865
     11  CB        52.6860  -40.9560    3.4410 C.3    34  PRO34       0.0296
     12  CG        54.0650  -40.3740    3.7190 C.3    34  PRO34       0.0237
     13  CD        54.9230  -41.6350    3.7390 C.3    34  PRO34       0.0939
     14  N         51.4320  -46.6940   -1.0400 N.3   227  TYR227     -0.1227
     15  CA        52.6650  -46.7850   -1.7850 C.3   227  TYR227      0.1736
     16  C         53.4200  -48.1040   -1.5080 C.2   227  TYR227      0.2595
     17  O         53.8050  -48.8300   -2.4350 O.2   227  TYR227     -0.2718
     18  CB        53.5250  -45.5530   -1.4490 C.3   227  TYR227      0.0548
     19  CG        54.8600  -45.5030   -2.1620 C.ar  227  TYR227     -0.0200
     20  CD1       55.9180  -46.2990   -1.7410 C.ar  227  TYR227     -0.0009
     21  CD2       55.0720  -44.6180   -3.2090 C.ar  227  TYR227     -0.0009
     22  CE1       57.1750  -46.2120   -2.3360 C.ar  227  TYR227      0.0417
     23  CE2       56.3240  -44.5030   -3.8200 C.ar  227  TYR227      0.0417
     24  CZ        57.3670  -45.3030   -3.3690 C.ar  227  TYR227      0.1957
     25  OH        58.6010  -45.1560   -3.9060 O.3   227  TYR227     -0.2866
     26  N         53.5980  -48.4180   -0.2270 N.am  228  ASP228     -0.1974
     27  CA        54.2640  -49.6370    0.1490 C.3   228  ASP228      0.1709
     28  C         53.5340  -50.9080   -0.2910 C.2   228  ASP228      0.2293
     29  O         54.1660  -51.8940   -0.6480 O.2   228  ASP228     -0.2864
     30  CB        54.5130  -49.6610    1.6540 C.3   228  ASP228      0.1436
     31  CG        55.6600  -48.7360    2.0560 C.2   228  ASP228      0.3671
     32  OD1       56.3770  -48.2540    1.1510 O.co2 228  ASP228     -0.2456
     33  OD2       55.8550  -48.4890    3.2670 O.co2 228  ASP228     -0.2456
     34  N         46.7260  -46.3270   -8.5450 N.3   247  ARG247     -0.1245
     35  CA        45.8620  -46.0060   -7.4330 C.3   247  ARG247      0.1563
     36  C         45.8720  -44.5170   -7.1160 C.2   247  ARG247      0.2260
     37  O         46.6250  -43.7340   -7.7290 O.2   247  ARG247     -0.2867
     38  CB        46.3870  -46.7200   -6.1920 C.3   247  ARG247      0.0307
     39  CG        47.8700  -46.3670   -5.9310 C.3   247  ARG247      0.0489
     40  CD        48.2850  -46.4860   -4.4760 C.3   247  ARG247      0.2205
     41  NE        49.7360  -46.3190   -4.3000 N.pl3 247  ARG247     -0.0865
     42  CZ        50.3110  -45.1460   -4.1720 C.cat 247  ARG247      0.5346
     43  NH1       49.6110  -44.1090   -4.1570 N.pl3 247  ARG247      0.1354
     44  NH2       51.6310  -45.0650   -4.0230 N.pl3 247  ARG247      0.1354
     45  N         46.9630  -41.3790   -5.2120 N.3   249  SER249     -0.1202
     46  CA        48.0770  -40.9790   -4.3850 C.3   249  SER249      0.2020
     47  C         47.5510  -40.6050   -2.9900 C.2   249  SER249      0.2619
     48  O         46.5240  -39.9640   -2.8630 O.2   249  SER249     -0.2717
     49  CB        48.7800  -39.7520   -4.9830 C.3   249  SER249      0.2103
     50  OG        49.5550  -39.1010   -3.9880 O.3   249  SER249     -0.2182
     51  N         48.2570  -41.0020   -1.9530 N.am  250  CYS250     -0.1955
     52  CA        47.8430  -40.6880   -0.6100 C.3   250  CYS250      0.1843
     53  C         48.2390  -39.2420   -0.1950 C.2   250  CYS250      0.2626
     54  O         47.4400  -38.4990    0.3930 O.2   250  CYS250     -0.2714
     55  CB        48.4750  -41.7290    0.3160 C.3   250  CYS250      0.0997
     56  SG        48.4730  -41.4190    2.0820 S.3   250  CYS250     -0.0797
     57  N         49.4500  -38.8400   -0.5670 N.am  251  THR251     -0.1936
     58  CA        49.9730  -37.5150   -0.2070 C.3   251  THR251      0.2028
     59  C         49.6370  -36.3690   -1.1670 C.2   251  THR251      0.2642
     60  O         49.8050  -35.2000   -0.8490 O.2   251  THR251     -0.2714
     61  CB        51.5080  -37.6020    0.0170 C.3   251  THR251      0.1808
     62  OG1       52.1950  -37.6710   -1.2450 O.3   251  THR251     -0.2208
     63  CG2       51.8240  -38.8740    0.7990 C.3   251  THR251      0.0379
     64  N         49.1890  -36.7160   -2.3570 N.am  252  ARG252     -0.1977
     65  CA        48.7960  -35.7320   -3.3290 C.3   252  ARG252      0.1597
     66  C         47.3610  -36.0650   -3.7820 C.2   252  ARG252      0.2287
     67  O         47.0900  -36.3840   -4.9580 O.2   252  ARG252     -0.2864
     68  CB        49.7910  -35.7340   -4.5030 C.3   252  ARG252      0.0334
     69  CG        51.2950  -35.9390   -4.0870 C.3   252  ARG252      0.0492
     70  CD        52.2280  -35.0640   -4.9390 C.3   252  ARG252      0.2205
     71  NE        53.6440  -35.4660   -5.1340 N.pl3 252  ARG252     -0.0865
     72  CZ        54.4860  -35.9850   -4.2290 C.cat 252  ARG252      0.5346
     73  NH1       54.1230  -36.2500   -2.9680 N.pl3 252  ARG252      0.1354
     74  NH2       55.7650  -36.1570   -4.5760 N.pl3 252  ARG252      0.1354
     75  N         48.8160  -42.2170   -8.9090 N.3   257  ALA257     -0.1245
     76  CA        50.1340  -42.8070   -8.6900 C.3   257  ALA257      0.1562
     77  C         50.2000  -44.1530   -9.4250 C.2   257  ALA257      0.2260
     78  O         49.3840  -45.0620   -9.1460 O.2   257  ALA257     -0.2867
     79  CB        50.3970  -43.0350   -7.1850 C.3   257  ALA257      0.0290
     80  N         55.2170  -49.5060  -11.4940 N.3   260  TYR260     -0.1241
     81  CA        55.5340  -50.4410  -12.5450 C.3   260  TYR260      0.1605
     82  C         56.9260  -51.0540  -12.4210 C.2   260  TYR260      0.2264
     83  O         57.8130  -50.4820  -11.7960 O.2   260  TYR260     -0.2867
     84  CB        55.3980  -49.7710  -13.9150 C.3   260  TYR260      0.0534
     85  CG        56.4170  -48.6670  -14.1720 C.ar  260  TYR260     -0.0201
     86  CD1       56.2600  -47.4050  -13.5920 C.ar  260  TYR260     -0.0009
     87  CD2       57.5370  -48.8860  -14.9760 C.ar  260  TYR260     -0.0009
     88  CE1       57.1800  -46.3880  -13.8090 C.ar  260  TYR260      0.0417
     89  CE2       58.4810  -47.8520  -15.1960 C.ar  260  TYR260      0.0417
     90  CZ        58.2760  -46.6110  -14.6060 C.ar  260  TYR260      0.1957
     91  OH        59.1260  -45.5550  -14.8230 O.3   260  TYR260     -0.2866
     92  N         59.2000  -48.7780   -9.8060 N.3   268  LEU268     -0.1231
     93  CA        59.0890  -47.3640   -9.6860 C.3   268  LEU268      0.1693
     94  C         57.6610  -46.8560   -9.6240 C.2   268  LEU268      0.2592
     95  O         56.7520  -47.4980  -10.1340 O.2   268  LEU268     -0.2718
     96  CB        59.8360  -46.7030  -10.8670 C.3   268  LEU268      0.0284
     97  CG        61.3400  -47.0710  -11.0290 C.3   268  LEU268      0.0019
     98  CD1       61.9350  -46.4030  -12.2760 C.3   268  LEU268      0.0001
     99  CD2       62.1150  -46.6420   -9.7800 C.3   268  LEU268      0.0001
    100  N         57.4670  -45.7300   -8.9590 N.am  269  GLN269     -0.1966
    101  CA        56.1440  -45.1200   -8.9060 C.3   269  GLN269      0.1733
    102  C         56.1830  -43.6660   -9.3570 C.2   269  GLN269      0.2617
    103  O         57.0840  -42.8940   -8.9380 O.2   269  GLN269     -0.2715
    104  CB        55.5340  -45.2450   -7.4990 C.3   269  GLN269      0.0408
    105  CG        55.3590  -46.7040   -7.0850 C.3   269  GLN269      0.0908
    106  CD        54.5590  -46.8850   -5.7980 C.2   269  GLN269      0.2608
    107  OE1       55.0290  -47.5380   -4.8220 O.2   269  GLN269     -0.2717
    108  NE2       53.3550  -46.3490   -5.7810 N.am  269  GLN269     -0.0878
    109  N         55.2310  -43.3160  -10.2230 N.am  270  THR270     -0.1937
    110  CA        55.1040  -41.9780  -10.7820 C.3   270  THR270      0.2028
    111  C         53.7570  -41.3590  -10.5700 C.2   270  THR270      0.2642
    112  O         52.7510  -42.0470  -10.4590 O.2   270  THR270     -0.2714
    113  CB        55.1340  -41.9050  -12.3330 C.3   270  THR270      0.1808
    114  OG1       55.5840  -43.1290  -12.8990 O.3   270  THR270     -0.2208
    115  CG2       55.9080  -40.7460  -12.7850 C.3   270  THR270      0.0379
    116  N         53.7530  -40.0360  -10.5950 N.am  271  ILE271     -0.1963
    117  CA        52.5440  -39.2760  -10.5390 C.3   271  ILE271      0.1712
    118  C         52.4780  -38.4590  -11.8140 C.2   271  ILE271      0.2458
    119  O         53.2450  -37.5090  -12.0110 O.2   271  ILE271     -0.2730
    120  CB        52.4820  -38.3830   -9.2790 C.3   271  ILE271      0.0289
    121  CG1       52.2250  -39.2650   -8.0390 C.3   271  ILE271      0.0022
    122  CG2       51.3650  -37.3540   -9.4230 C.3   271  ILE271      0.0023
    123  CD1       52.3320  -38.5430   -6.7140 C.3   271  ILE271      0.0001
    124  N         51.6040  -38.8640  -12.7380 N.am  272  PRO272     -0.2716
    125  CA        51.4220  -38.1900  -14.0280 C.3   272  PRO272      0.1536
    126  C         51.0380  -36.7210  -13.8680 C.2   272  PRO272      0.2598
    127  O         50.1600  -36.3990  -13.0560 O.2   272  PRO272     -0.2715
    128  CB        50.2800  -38.9730  -14.6800 C.3   272  PRO272      0.0310
    129  CG        50.2680  -40.2760  -13.9530 C.3   272  PRO272      0.0237
    130  CD        50.6000  -39.9270  -12.5500 C.3   272  PRO272      0.0939
    131  N         51.6990  -35.8450  -14.6230 N.am  273  HIS273     -0.1974
    132  CA        51.3930  -34.4060  -14.6190 C.3   273  HIS273      0.1656
    133  C         50.9740  -33.9290  -16.0150 C.2   273  HIS273      0.2291
    134  O         51.4880  -34.4180  -17.0110 O.2   273  HIS273     -0.2864
    135  CB        52.6040  -33.5600  -14.2040 C.3   273  HIS273      0.0771
    136  CG        53.3040  -34.0530  -12.9830 C.ar  273  HIS273      0.0820
    137  ND1       52.6670  -34.2010  -11.7680 N.ar  273  HIS273     -0.2267
    138  CD2       54.5730  -34.4770  -12.7990 C.ar  273  HIS273      0.1154
    139  CE1       53.5130  -34.7070  -10.8890 C.ar  273  HIS273      0.1986
    140  NE2       54.6750  -34.8860  -11.4890 N.ar  273  HIS273     -0.2212
    141  N         48.5010  -34.4980  -17.9170 N.3   275  LYS275     -0.1245
    142  CA        47.9220  -35.4850  -18.8090 C.3   275  LYS275      0.1561
    143  C         47.0130  -36.4050  -18.0250 C.2   275  LYS275      0.2260
    144  O         47.4260  -36.9810  -17.0160 O.2   275  LYS275     -0.2867
    145  CB        49.0180  -36.2890  -19.5240 C.3   275  LYS275      0.0271
    146  CG        49.8170  -37.2240  -18.6220 C.3   275  LYS275      0.0035
    147  CD        51.0940  -37.7020  -19.3010 C.3   275  LYS275      0.0206
    148  CE        50.8200  -38.3970  -20.6340 C.3   275  LYS275      0.1093
    149  NZ        52.1120  -38.7470  -21.2900 N.3   275  LYS275     -0.1314
    150  N         55.0990  -47.0850  -24.9470 N.3   287  GLU287     -0.1245
    151  CA        56.5060  -46.9990  -24.6000 C.3   287  GLU287      0.1567
    152  C         57.0890  -48.2280  -23.8920 C.2   287  GLU287      0.2260
    153  O         58.2800  -48.2520  -23.5480 O.2   287  GLU287     -0.2867
    154  CB        56.7370  -45.7600  -23.7410 C.3   287  GLU287      0.0388
    155  CG        56.2120  -44.4950  -24.3810 C.3   287  GLU287      0.1160
    156  CD        56.2910  -43.3060  -23.4450 C.2   287  GLU287      0.3649
    157  OE1       56.1030  -43.5080  -22.2250 O.co2 287  GLU287     -0.2457
    158  OE2       56.5200  -42.1730  -23.9220 O.co2 287  GLU287     -0.2457
    159  N         56.2680  -49.4160  -20.8740 N.3   289  PHE289     -0.1227
    160  CA        56.2670  -49.3490  -19.4190 C.3   289  PHE289      0.1736
    161  C         55.0270  -49.9440  -18.7310 C.2   289  PHE289      0.2595
    162  O         55.1380  -50.5740  -17.6790 O.2   289  PHE289     -0.2718
    163  CB        56.4300  -47.9010  -18.9540 C.3   289  PHE289      0.0547
    164  CG        57.7110  -47.2700  -19.3890 C.ar  289  PHE289     -0.0202
    165  CD1       58.9230  -47.9210  -19.1930 C.ar  289  PHE289     -0.0042
    166  CD2       57.7130  -46.0180  -19.9800 C.ar  289  PHE289     -0.0042
    167  CE1       60.1220  -47.3320  -19.5800 C.ar  289  PHE289     -0.0003
    168  CE2       58.9120  -45.4160  -20.3720 C.ar  289  PHE289     -0.0003
    169  CZ        60.1220  -46.0820  -20.1680 C.ar  289  PHE289     -0.0000
    170  N         53.8570  -49.6900  -19.3050 N.am  290  TYR290     -0.1976
    171  CA        52.6010  -50.1910  -18.7500 C.3   290  TYR290      0.1639
    172  C         51.9310  -51.1820  -19.6970 C.2   290  TYR290      0.2290
    173  O         51.0500  -50.8180  -20.4860 O.2   290  TYR290     -0.2864
    174  CB        51.6430  -49.0350  -18.4740 C.3   290  TYR290      0.0560
    175  CG        52.2570  -47.8270  -17.7770 C.ar  290  TYR290     -0.0198
    176  CD1       53.3330  -47.9630  -16.8920 C.ar  290  TYR290     -0.0009
    177  CD2       51.7220  -46.5510  -17.9740 C.ar  290  TYR290     -0.0009
    178  CE1       53.8590  -46.8460  -16.2280 C.ar  290  TYR290      0.0417
    179  CE2       52.2250  -45.4440  -17.3060 C.ar  290  TYR290      0.0417
    180  CZ        53.2920  -45.6020  -16.4370 C.ar  290  TYR290      0.1957
    181  OH        53.7480  -44.5090  -15.7660 O.3   290  TYR290     -0.2866
@<TRIPOS>BOND
     1   150   151    1
     2   151   152    1
     3   151   154    1
     4   155   154    1
     5   155   156    1
     6   158   156   ar
     7   152   153    2
     8   156   157   ar
     9   149   148    1
    10   159   160    1
    11   148   147    1
    12   173   172    2
    13   168   169   ar
    14   168   166   ar
    15   169   167   ar
    16   166   164   ar
    17   172   171    1
    18   167   165   ar
    19   145   142    1
    20   145   146    1
    21   160   163    1
    22   160   161    1
    23   164   165   ar
    24   164   163    1
    25   170   171    1
    26   170   161   am
    27   147   146    1
    28   142   143    1
    29   142   141    1
    30   171   174    1
    31   161   162    2
    32   174   175    1
    33   143   144    2
    34   177   175   ar
    35   177   179   ar
    36   175   176   ar
    37   179   180   ar
    38   134   133    2
    39   176   178   ar
    40   180   178   ar
    41   180   181    1
    42   133   132    1
    43    89    87   ar
    44    89    90   ar
    45    87    85   ar
    46    91    90    1
    47   128   125    1
    48   128   129    1
    49   131   132    1
    50   131   126   am
    51   132   135    1
    52    90    88   ar
    53   135   136    1
    54    85    84    1
    55    85    86   ar
    56   125   126    1
    57   125   124    1
    58   129   130    1
    59    84    81    1
    60   126   127    2
    61    88    86   ar
    62   136   138   ar
    63   136   137   ar
    64   114   113    1
    65   138   140   ar
    66   115   113    1
    67   124   130    1
    68   124   118   am
    69    81    82    1
    70    81    80    1
    71    82    83    2
    72   113   110    1
    73    98    97    1
    74   119   118    2
    75   118   117    1
    76   137   139   ar
    77   140   139   ar
    78    97    96    1
    79    97    99    1
    80    96    93    1
    81   110   111    1
    82   110   109    1
    83   116   111   am
    84   116   117    1
    85   111   112    2
    86   117   120    1
    87   109   102   am
    88    95    94    2
    89    92    93    1
    90    93    94    1
    91    94   100   am
    92    77    78    2
    93    77    76    1
    94   122   120    1
    95   102   103    2
    96   102   101    1
    97   120   121    1
    98   100   101    1
    99    75    76    1
   100   101   104    1
   101    76    79    1
   102    34    35    1
   103   121   123    1
   104    37    36    2
   105   104   105    1
   106    35    36    1
   107    35    38    1
   108   105   106    1
   109    38    39    1
   110    39    40    1
   111   106   108   am
   112   106   107    2
   113    45    46    1
   114    71    70    1
   115    71    72    2
   116    49    46    1
   117    49    50    1
   118    67    66    2
   119    70    69    1
   120    74    72    1
   121    68    69    1
   122    68    65    1
   123    40    41    1
   124    46    47    1
   125    41    42    2
   126    72    73    1
   127    42    43    1
   128    42    44    1
   129    25    24    1
   130    23    24   ar
   131    23    21   ar
   132    66    65    1
   133    24    22   ar
   134    65    64    1
   135    21    19   ar
   136    47    48    2
   137    47    51   am
   138    17    16    2
   139    64    59   am
   140    22    20   ar
   141    19    20   ar
   142    19    18    1
   143    51    52    1
   144    15    16    1
   145    15    18    1
   146    15    14    1
   147    16    26   am
   148    62    61    1
   149    59    60    2
   150    59    58    1
   151    29    28    2
   152    52    53    1
   153    52    55    1
   154    57    58    1
   155    57    53   am
   156    28    27    1
   157    26    27    1
   158    58    61    1
   159    53    54    2
   160    61    63    1
   161    27    30    1
   162    55    56    1
   163    32    31   ar
   164    30    31    1
   165    31    33   ar
   166    10     9    2
   167    11    12    1
   168    11     8    1
   169     9     8    1
   170    12    13    1
   171    13     7    1
   172     5     6    1
   173     5     2    1
   174     8     7    1
   175     7     3   am
   176     2     3    1
   177     2     1    1
   178     3     4    2
