@<TRIPOS>MOLECULE
tmp/3buoD00.pdb
 233 227 0 0 0
SMALL
GASTEIGER

@<TRIPOS>ATOM
      1  N         39.7750   27.9500   13.5270 N.3    32  ASN32      -0.1225
      2  CA        39.1730   29.2610   13.4680 C.3    32  ASN32       0.1785
      3  C         38.3180   29.5370   12.2500 C.2    32  ASN32       0.2598
      4  O         37.3670   30.3130   12.3170 O.2    32  ASN32      -0.2718
      5  CB        40.2700   30.3030   13.5560 C.3    32  ASN32       0.1169
      6  CG        39.8710   31.4620   14.4040 C.2    32  ASN32       0.2627
      7  OD1       39.0730   31.3090   15.3350 O.2    32  ASN32      -0.2716
      8  ND2       40.4280   32.6350   14.1140 N.am   32  ASN32      -0.0877
      9  N         38.6700   28.9010   11.1380 N.am   33  SER33      -0.1938
     10  CA        37.9510   29.0650    9.8910 C.3    33  SER33       0.2040
     11  C         36.4270   28.9610   10.0100 C.2    33  SER33       0.2485
     12  O         35.9000   28.1620   10.7840 O.2    33  SER33      -0.2729
     13  CB        38.4350   28.0340    8.8750 C.3    33  SER33       0.2129
     14  OG        38.0740   26.7290    9.2830 O.3    33  SER33      -0.2179
     15  N         35.7050   29.8120    9.2750 N.am   34  PRO34      -0.2726
     16  CA        34.2470   29.7530    9.3360 C.3    34  PRO34       0.1402
     17  C         33.6970   28.6160    8.4360 C.2    34  PRO34       0.2269
     18  O         34.2640   28.3080    7.3730 O.2    34  PRO34      -0.2865
     19  CB        33.8310   31.1440    8.8530 C.3    34  PRO34       0.0296
     20  CG        34.9680   32.0070    9.3020 C.3    34  PRO34       0.0237
     21  CD        36.1420   31.1640    8.8830 C.3    34  PRO34       0.0939
     22  N         32.6790   28.8850   12.3150 N.3    36  TYR36      -0.1241
     23  CA        33.4220   28.6790   13.5380 C.3    36  TYR36       0.1605
     24  C         32.5460   28.8190   14.7800 C.2    36  TYR36       0.2264
     25  O         32.5830   29.8320   15.4700 O.2    36  TYR36      -0.2867
     26  CB        34.5980   29.6620   13.5810 C.3    36  TYR36       0.0534
     27  CG        35.4900   29.5880   14.8140 C.ar   36  TYR36      -0.0201
     28  CD1       36.0530   28.3750   15.2480 C.ar   36  TYR36      -0.0009
     29  CD2       35.8110   30.7460   15.5230 C.ar   36  TYR36      -0.0009
     30  CE1       36.9160   28.3290   16.3610 C.ar   36  TYR36       0.0417
     31  CE2       36.6700   30.7100   16.6280 C.ar   36  TYR36       0.0417
     32  CZ        37.2190   29.5070   17.0430 C.ar   36  TYR36       0.1957
     33  OH        38.0590   29.5170   18.1380 O.3    36  TYR36      -0.2866
     34  N         32.3450   31.1830   17.6880 N.3    39  ASP39      -0.1239
     35  CA        32.0150   32.5820   17.4750 C.3    39  ASP39       0.1674
     36  C         30.5250   32.8060   17.2220 C.2    39  ASP39       0.2266
     37  O         29.8760   33.6290   17.8790 O.2    39  ASP39      -0.2867
     38  CB        32.8000   33.1560   16.2880 C.3    39  ASP39       0.1410
     39  CG        34.1270   33.7800   16.7010 C.2    39  ASP39       0.3668
     40  OD1       34.1620   34.4920   17.7340 O.co2  39  ASP39      -0.2456
     41  OD2       35.1280   33.5780   15.9760 O.co2  39  ASP39      -0.2456
     42  N         31.7410   22.6710    4.3810 N.3   226  THR226     -0.1203
     43  CA        32.5010   23.8860    4.6480 C.3   226  THR226      0.1994
     44  C         33.7900   23.9590    3.8520 C.2   226  THR226      0.2618
     45  O         34.1580   23.0090    3.1520 O.2   226  THR226     -0.2717
     46  CB        32.9120   24.0160    6.1430 C.3   226  THR226      0.1784
     47  OG1       34.1900   23.3870    6.3530 O.3   226  THR226     -0.2211
     48  CG2       31.8770   23.3650    7.0400 C.3   226  THR226      0.0376
     49  N         34.4760   25.0880    3.9620 N.am  227  TYR227     -0.1961
     50  CA        35.7270   25.2390    3.2760 C.3   227  TYR227      0.1771
     51  C         36.7070   24.1100    3.6380 C.2   227  TYR227      0.2619
     52  O         37.2870   23.4760    2.7520 O.2   227  TYR227     -0.2715
     53  CB        36.3410   26.5950    3.6160 C.3   227  TYR227      0.0574
     54  CG        37.5940   26.9230    2.8370 C.ar  227  TYR227     -0.0198
     55  CD1       38.8070   26.3110    3.1330 C.ar  227  TYR227     -0.0009
     56  CD2       37.5560   27.8420    1.7930 C.ar  227  TYR227     -0.0009
     57  CE1       39.9500   26.6090    2.4090 C.ar  227  TYR227      0.0417
     58  CE2       38.6850   28.1440    1.0610 C.ar  227  TYR227      0.0417
     59  CZ        39.8830   27.5310    1.3720 C.ar  227  TYR227      0.1957
     60  OH        41.0170   27.8690    0.6550 O.3   227  TYR227     -0.2866
     61  N         36.8810   23.8620    4.9340 N.am  228  ASP228     -0.1971
     62  CA        37.7600   22.8080    5.3560 C.3   228  ASP228      0.1709
     63  C         37.3590   21.4850    4.7520 C.2   228  ASP228      0.2293
     64  O         38.1780   20.8050    4.1200 O.2   228  ASP228     -0.2864
     65  CB        37.7580   22.6710    6.8740 C.3   228  ASP228      0.1436
     66  CG        38.2010   23.9310    7.5680 C.2   228  ASP228      0.3671
     67  OD1       39.2700   24.4630    7.2120 O.co2 228  ASP228     -0.2456
     68  OD2       37.4810   24.3890    8.4770 O.co2 228  ASP228     -0.2456
     69  N         29.8260   24.2100   -3.6170 N.3   247  ARG247     -0.1245
     70  CA        28.9250   24.3180   -2.4950 C.3   247  ARG247      0.1563
     71  C         28.4750   25.7470   -2.2570 C.2   247  ARG247      0.2260
     72  O         28.8170   26.6470   -3.0180 O.2   247  ARG247     -0.2867
     73  CB        29.6470   23.8580   -1.2420 C.3   247  ARG247      0.0307
     74  CG        30.7470   24.8580   -0.8370 C.3   247  ARG247      0.0489
     75  CD        31.3500   24.5210    0.5080 C.3   247  ARG247      0.2205
     76  NE        31.9850   25.6640    1.1620 N.pl3 247  ARG247     -0.0865
     77  CZ        33.0630   26.2850    0.7130 C.cat 247  ARG247      0.5346
     78  NH1       33.6420   25.8860   -0.4080 N.pl3 247  ARG247      0.1354
     79  NH2       33.5670   27.2950    1.4040 N.pl3 247  ARG247      0.1354
     80  N         28.5550   29.2630   -0.1750 N.3   249  SER249     -0.1202
     81  CA        29.5450   29.9170    0.6430 C.3   249  SER249      0.2020
     82  C         29.0530   30.2040    2.0390 C.2   249  SER249      0.2619
     83  O         27.8710   30.3880    2.2610 O.2   249  SER249     -0.2717
     84  CB        29.9960   31.2240    0.0440 C.3   249  SER249      0.2103
     85  OG        30.8700   31.8500    0.9650 O.3   249  SER249     -0.2182
     86  N         29.9680   30.2580    2.9830 N.am  250  CYS250     -0.1955
     87  CA        29.5870   30.5100    4.3320 C.3   250  CYS250      0.1843
     88  C         29.6160   31.9960    4.7210 C.2   250  CYS250      0.2626
     89  O         28.7410   32.4770    5.4520 O.2   250  CYS250     -0.2714
     90  CB        30.4860   29.6970    5.2590 C.3   250  CYS250      0.0997
     91  SG        29.7500   29.3700    6.8390 S.3   250  CYS250     -0.0797
     92  N         30.6240   32.7170    4.2330 N.am  251  THR251     -0.1936
     93  CA        30.7580   34.1310    4.5230 C.3   251  THR251      0.2028
     94  C         30.0290   34.9930    3.5210 C.2   251  THR251      0.2642
     95  O         29.4310   35.9980    3.8840 O.2   251  THR251     -0.2714
     96  CB        32.2240   34.5710    4.5370 C.3   251  THR251      0.1808
     97  OG1       32.7660   34.4750    3.2110 O.3   251  THR251     -0.2208
     98  CG2       33.0290   33.7020    5.4950 C.3   251  THR251      0.0379
     99  N         30.0960   34.6000    2.2540 N.am  252  ARG252     -0.1977
    100  CA        29.4060   35.3160    1.2040 C.3   252  ARG252      0.1597
    101  C         28.0940   34.6210    0.7760 C.2   252  ARG252      0.2287
    102  O         27.9250   34.2150   -0.3880 O.2   252  ARG252     -0.2864
    103  CB        30.3220   35.4930   -0.0060 C.3   252  ARG252      0.0334
    104  CG        31.7350   35.9370    0.3460 C.3   252  ARG252      0.0492
    105  CD        32.3310   36.8480   -0.7410 C.3   252  ARG252      0.2205
    106  NE        33.7510   36.5990   -1.0490 N.pl3 252  ARG252     -0.0865
    107  CZ        34.7270   36.3930   -0.1550 C.cat 252  ARG252      0.5346
    108  NH1       34.4720   36.3860    1.1540 N.pl3 252  ARG252      0.1354
    109  NH2       35.9810   36.2190   -0.5730 N.pl3 252  ARG252      0.1354
    110  N         30.9390   28.5930   -4.0890 N.3   257  ALA257     -0.1245
    111  CA        32.2980   28.3840   -3.7110 C.3   257  ALA257      0.1562
    112  C         32.9150   27.1440   -4.3480 C.2   257  ALA257      0.2260
    113  O         32.9730   26.0980   -3.7260 O.2   257  ALA257     -0.2867
    114  CB        32.3970   28.2980   -2.2040 C.3   257  ALA257      0.0290
    115  N         38.6490   23.3510   -6.5050 N.3   260  TYR260     -0.1241
    116  CA        39.3000   22.5780   -7.5420 C.3   260  TYR260      0.1605
    117  C         40.8030   22.2490   -7.3410 C.2   260  TYR260      0.2264
    118  O         41.4790   22.8240   -6.4650 O.2   260  TYR260     -0.2867
    119  CB        39.1020   23.2690   -8.8920 C.3   260  TYR260      0.0534
    120  CG        39.8970   24.5320   -9.0570 C.ar  260  TYR260     -0.0201
    121  CD1       39.8720   25.5250   -8.0770 C.ar  260  TYR260     -0.0009
    122  CD2       40.6480   24.7580  -10.2130 C.ar  260  TYR260     -0.0009
    123  CE1       40.5710   26.7140   -8.2420 C.ar  260  TYR260      0.0417
    124  CE2       41.3550   25.9480  -10.3920 C.ar  260  TYR260      0.0417
    125  CZ        41.3090   26.9240   -9.4020 C.ar  260  TYR260      0.1957
    126  OH        41.9860   28.1120   -9.5750 O.3   260  TYR260     -0.2866
    127  N         42.4470   24.8840   -4.7430 N.3   268  LEU268     -0.1231
    128  CA        41.9810   26.2410   -4.6240 C.3   268  LEU268      0.1693
    129  C         40.4700   26.3320   -4.5900 C.2   268  LEU268      0.2592
    130  O         39.7710   25.3620   -4.9130 O.2   268  LEU268     -0.2718
    131  CB        42.4850   27.0660   -5.7880 C.3   268  LEU268      0.0284
    132  CG        43.9920   27.0310   -5.9350 C.3   268  LEU268      0.0019
    133  CD1       44.3940   27.6870   -7.2450 C.3   268  LEU268      0.0001
    134  CD2       44.6060   27.7270   -4.7360 C.3   268  LEU268      0.0001
    135  N         39.9620   27.4960   -4.2070 N.am  269  GLN269     -0.1966
    136  CA        38.5380   27.7020   -4.1270 C.3   269  GLN269      0.1733
    137  C         38.1270   29.1120   -4.5270 C.2   269  GLN269      0.2617
    138  O         38.5350   30.0960   -3.9070 O.2   269  GLN269     -0.2715
    139  CB        38.0500   27.3770   -2.7060 C.3   269  GLN269      0.0408
    140  CG        38.4960   26.0040   -2.1960 C.3   269  GLN269      0.0908
    141  CD        37.7200   25.5370   -0.9730 C.2   269  GLN269      0.2608
    142  OE1       38.1190   24.5880   -0.2950 O.2   269  GLN269     -0.2717
    143  NE2       36.6000   26.1900   -0.6930 N.am  269  GLN269     -0.0878
    144  N         37.3360   29.2000   -5.5840 N.am  270  THR270     -0.1937
    145  CA        36.8780   30.4760   -6.0710 C.3   270  THR270      0.2028
    146  C         35.3900   30.7270   -5.8770 C.2   270  THR270      0.2642
    147  O         34.5830   29.7840   -5.8880 O.2   270  THR270     -0.2714
    148  CB        37.1700   30.6270   -7.5640 C.3   270  THR270      0.1808
    149  OG1       38.5790   30.6340   -7.7590 O.3   270  THR270     -0.2208
    150  CG2       36.5990   31.9330   -8.1080 C.3   270  THR270      0.0379
    151  N         35.0350   31.9970   -5.6880 N.am  271  ILE271     -0.1963
    152  CA        33.6520   32.3960   -5.5470 C.3   271  ILE271      0.1712
    153  C         33.2150   33.2550   -6.7260 C.2   271  ILE271      0.2458
    154  O         33.4570   34.4510   -6.7590 O.2   271  ILE271     -0.2730
    155  CB        33.4170   33.1670   -4.2430 C.3   271  ILE271      0.0289
    156  CG1       33.7090   32.2540   -3.0490 C.3   271  ILE271      0.0022
    157  CG2       31.9950   33.6810   -4.2040 C.3   271  ILE271      0.0023
    158  CD1       33.4280   32.8640   -1.7010 C.3   271  ILE271      0.0001
    159  N         32.5580   32.6370   -7.7100 N.am  272  PRO272     -0.2716
    160  CA        32.0780   33.3130   -8.9170 C.3   272  PRO272      0.1536
    161  C         31.5730   34.7490   -8.7270 C.2   272  PRO272      0.2598
    162  O         30.6730   35.0160   -7.9130 O.2   272  PRO272     -0.2715
    163  CB        30.9760   32.3850   -9.4140 C.3   272  PRO272      0.0310
    164  CG        31.4450   31.0330   -8.9600 C.3   272  PRO272      0.0237
    165  CD        31.9130   31.3190   -7.5620 C.3   272  PRO272      0.0939
    166  N         32.1670   35.6650   -9.4830 N.am  273  HIS273     -0.1974
    167  CA        31.7840   37.0740   -9.4630 C.3   273  HIS273      0.1656
    168  C         31.6870   37.6380  -10.8790 C.2   273  HIS273      0.2291
    169  O         32.5530   37.3610  -11.7270 O.2   273  HIS273     -0.2864
    170  CB        32.7940   37.9020   -8.6610 C.3   273  HIS273      0.0771
    171  CG        32.7730   37.6280   -7.1890 C.ar  273  HIS273      0.0820
    172  ND1       31.6680   37.8740   -6.3990 N.ar  273  HIS273     -0.2267
    173  CD2       33.7310   37.1450   -6.3560 C.ar  273  HIS273      0.1154
    174  CE1       31.9450   37.5560   -5.1460 C.ar  273  HIS273      0.1986
    175  NE2       33.1910   37.1110   -5.0940 N.ar  273  HIS273     -0.2212
    176  N         29.8570   36.7280  -13.0370 N.3   275  LYS275     -0.1245
    177  CA        29.4970   35.6040  -13.8710 C.3   275  LYS275      0.1561
    178  C         28.7400   34.5610  -13.0590 C.2   275  LYS275      0.2260
    179  O         29.1820   34.1590  -11.9830 O.2   275  LYS275     -0.2867
    180  CB        30.7430   35.0000  -14.5390 C.3   275  LYS275      0.0271
    181  CG        31.6740   34.2010  -13.6280 C.3   275  LYS275      0.0035
    182  CD        33.0800   33.9960  -14.2500 C.3   275  LYS275      0.0206
    183  CE        33.0520   33.4110  -15.6650 C.3   275  LYS275      0.1093
    184  NZ        34.4350   33.2180  -16.2050 N.3   275  LYS275     -0.1314
    185  N         30.5830   30.1550  -15.0010 N.3   280  ALA280     -0.1245
    186  CA        31.8670   29.7610  -14.4670 C.3   280  ALA280      0.1562
    187  C         32.1750   28.3190  -14.8220 C.2   280  ALA280      0.2260
    188  O         33.2460   27.9980  -15.3570 O.2   280  ALA280     -0.2867
    189  CB        31.8840   29.9290  -12.9560 C.3   280  ALA280      0.0290
    190  N         32.9720   27.6780  -18.6550 N.3   283  ASP283     -0.1225
    191  CA        34.2870   28.1210  -19.0440 C.3   283  ASP283      0.1805
    192  C         35.3970   27.3060  -18.3790 C.2   283  ASP283      0.2598
    193  O         36.3040   26.7950  -19.0560 O.2   283  ASP283     -0.2718
    194  CB        34.4650   29.6050  -18.7040 C.3   283  ASP283      0.1424
    195  CG        33.4480   30.5000  -19.3990 C.2   283  ASP283      0.3668
    196  OD1       33.2280   30.3410  -20.6240 O.co2 283  ASP283     -0.2456
    197  OD2       32.8790   31.3790  -18.7160 O.co2 283  ASP283     -0.2456
    198  N         35.3000   27.1840  -17.0530 N.am  284  GLY284     -0.1957
    199  CA        36.2760   26.4360  -16.2860 C.3   284  GLY284      0.1869
    200  C         36.5100   25.0920  -16.9270 C.2   284  GLY284      0.2309
    201  O         37.6580   24.6560  -17.0760 O.2   284  GLY284     -0.2863
    202  N         38.5290   25.5030  -20.0650 N.3   287  GLU287     -0.1245
    203  CA        39.9250   25.7810  -19.7720 C.3   287  GLU287      0.1567
    204  C         40.6690   24.7510  -18.9140 C.2   287  GLU287      0.2260
    205  O         41.7910   25.0080  -18.4680 O.2   287  GLU287     -0.2867
    206  CB        40.0520   27.1570  -19.1310 C.3   287  GLU287      0.0388
    207  CG        39.7360   28.2870  -20.0870 C.3   287  GLU287      0.1160
    208  CD        39.9360   29.6440  -19.4560 C.2   287  GLU287      0.3649
    209  OE1       39.0990   30.0430  -18.6080 O.co2 287  GLU287     -0.2457
    210  OE2       40.9420   30.3040  -19.8040 O.co2 287  GLU287     -0.2457
    211  N         39.7790   23.3110  -15.8040 N.3   289  PHE289     -0.1227
    212  CA        39.7620   23.5180  -14.3740 C.3   289  PHE289      0.1736
    213  C         38.5520   22.8650  -13.7160 C.2   289  PHE289      0.2595
    214  O         38.5840   22.4690  -12.5430 O.2   289  PHE289     -0.2718
    215  CB        39.7680   25.0060  -14.0700 C.3   289  PHE289      0.0547
    216  CG        40.9390   25.7260  -14.6500 C.ar  289  PHE289     -0.0202
    217  CD1       42.2310   25.3940  -14.2620 C.ar  289  PHE289     -0.0042
    218  CD2       40.7520   26.7540  -15.5770 C.ar  289  PHE289     -0.0042
    219  CE1       43.3270   26.0790  -14.7880 C.ar  289  PHE289     -0.0003
    220  CE2       41.8390   27.4500  -16.1120 C.ar  289  PHE289     -0.0003
    221  CZ        43.1300   27.1120  -15.7160 C.ar  289  PHE289     -0.0000
    222  N         37.4820   22.7660  -14.4950 N.am  290  TYR290     -0.1976
    223  CA        36.2580   22.1520  -14.0610 C.3   290  TYR290      0.1639
    224  C         35.8930   21.0000  -14.9950 C.2   290  TYR290      0.2290
    225  O         34.9730   21.1030  -15.8110 O.2   290  TYR290     -0.2864
    226  CB        35.1470   23.2000  -14.0260 C.3   290  TYR290      0.0560
    227  CG        35.4950   24.4410  -13.2110 C.ar  290  TYR290     -0.0198
    228  CD1       36.2000   24.3370  -12.0100 C.ar  290  TYR290     -0.0009
    229  CD2       35.0840   25.7100  -13.6190 C.ar  290  TYR290     -0.0009
    230  CE1       36.4820   25.4590  -11.2420 C.ar  290  TYR290      0.0417
    231  CE2       35.3610   26.8350  -12.8560 C.ar  290  TYR290      0.0417
    232  CZ        36.0610   26.7010  -11.6670 C.ar  290  TYR290      0.1957
    233  OH        36.3430   27.8090  -10.8980 O.3   290  TYR290     -0.2866
@<TRIPOS>BOND
     1   196   195   ar
     2   207   208    1
     3   207   206    1
     4   202   203    1
     5   210   208   ar
     6   203   206    1
     7   203   204    1
     8   208   209   ar
     9   195   197   ar
    10   195   194    1
    11   193   192    2
    12   191   194    1
    13   191   190    1
    14   191   192    1
    15   204   205    2
    16   192   198   am
    17   201   200    2
    18   198   199    1
    19   200   199    1
    20   184   183    1
    21   220   221   ar
    22   220   218   ar
    23   225   224    2
    24   211   212    1
    25   221   219   ar
    26   183   182    1
    27   218   216   ar
    28   188   187    2
    29   185   186    1
    30   224   223    1
    31   187   186    1
    32   219   217   ar
    33   216   217   ar
    34   216   215    1
    35   180   177    1
    36   180   181    1
    37   222   223    1
    38   222   213   am
    39   186   189    1
    40   212   215    1
    41   212   213    1
    42   182   181    1
    43   223   226    1
    44   226   227    1
    45   177   178    1
    46   177   176    1
    47   213   214    2
    48   229   227   ar
    49   229   231   ar
    50   227   228   ar
    51   178   179    2
    52   231   232   ar
    53   228   230   ar
    54   169   168    2
    55   232   230   ar
    56   232   233    1
    57   168   167    1
    58   124   122   ar
    59   124   125   ar
    60   122   120   ar
    61   126   125    1
    62   166   167    1
    63   166   161   am
    64   167   170    1
    65   163   164    1
    66   163   160    1
    67   125   123   ar
    68   120   119    1
    69   120   121   ar
    70   164   165    1
    71   160   161    1
    72   160   159    1
    73   119   116    1
    74   161   162    2
    75   170   171    1
    76   123   121   ar
    77   150   148    1
    78   149   148    1
    79   159   165    1
    80   159   153   am
    81   148   145    1
    82   116   117    1
    83   116   115    1
    84   117   118    2
    85   133   132    1
    86   171   172   ar
    87   171   173   ar
    88   154   153    2
    89   153   152    1
    90   172   174   ar
    91   173   175   ar
    92   145   146    1
    93   145   144    1
    94   132   131    1
    95   132   134    1
    96   147   146    2
    97   146   151   am
    98   131   128    1
    99   151   152    1
   100   144   137   am
   101   152   155    1
   102   174   175   ar
   103   130   129    2
   104   127   128    1
   105   128   129    1
   106   129   135   am
   107   137   136    1
   108   137   138    2
   109   112   113    2
   110   112   111    1
   111   155   157    1
   112   155   156    1
   113   135   136    1
   114   136   139    1
   115   110   111    1
   116   111   114    1
   117    69    70    1
   118   156   158    1
   119    72    71    2
   120   139   140    1
   121    70    71    1
   122    70    73    1
   123   140   141    1
   124    73    74    1
   125   106   105    1
   126   106   107    2
   127   141   143   am
   128   141   142    2
   129    74    75    1
   130   105   104    1
   131   109   107    1
   132    78    77    1
   133   102   101    2
   134    80    81    1
   135   107   108    1
   136   103   104    1
   137   103   100    1
   138    84    81    1
   139    84    85    1
   140    75    76    1
   141    81    82    1
   142    60    59    1
   143    77    76    2
   144    77    79    1
   145   101   100    1
   146    58    59   ar
   147    58    56   ar
   148   100    99    1
   149    59    57   ar
   150    56    54   ar
   151    82    83    2
   152    82    86   am
   153    99    94   am
   154    57    55   ar
   155    52    51    2
   156    54    55   ar
   157    54    53    1
   158    86    87    1
   159    45    44    2
   160    97    96    1
   161    50    53    1
   162    50    51    1
   163    50    49    1
   164    94    95    2
   165    94    93    1
   166    51    61   am
   167    44    49   am
   168    44    43    1
   169    64    63    2
   170    92    93    1
   171    92    88   am
   172    87    88    1
   173    87    90    1
   174    42    43    1
   175    93    96    1
   176    96    98    1
   177    43    46    1
   178    88    89    2
   179    63    62    1
   180    61    62    1
   181    90    91    1
   182    62    65    1
   183    46    47    1
   184    46    48    1
   185    65    66    1
   186    67    66   ar
   187    18    17    2
   188    66    68   ar
   189    17    16    1
   190    19    20    1
   191    19    16    1
   192    13    14    1
   193    13    10    1
   194    21    15    1
   195    21    20    1
   196    15    16    1
   197    15    11   am
   198    10    11    1
   199    10     9    1
   200    11    12    2
   201     9     3   am
   202     3     4    2
   203     3     2    1
   204    22    23    1
   205     2     1    1
   206     2     5    1
   207    23    26    1
   208    23    24    1
   209     5     6    1
   210    26    27    1
   211     8     6   am
   212     6     7    2
   213    24    25    2
   214    27    28   ar
   215    27    29   ar
   216    28    30   ar
   217    29    31   ar
   218    41    39   ar
   219    38    39    1
   220    38    35    1
   221    30    32   ar
   222    31    32   ar
   223    39    40   ar
   224    32    33    1
   225    36    35    1
   226    36    37    2
   227    35    34    1
