@<TRIPOS>MOLECULE
tmp/3busA00.pdb
 192 187 0 0 0
SMALL
GASTEIGER

@<TRIPOS>ATOM
      1  N         17.2980   32.9570   37.8300 N.3     3  GLY3       -0.1210
      2  CA        17.0790   32.7400   36.4010 C.3     3  GLY3        0.1956
      3  C         15.7220   33.2320   35.9510 C.2     3  GLY3        0.2611
      4  O         15.5900   34.3420   35.4270 O.2     3  GLY3       -0.2717
      5  N         14.7090   32.4010   36.1690 N.am    4  GLU4       -0.1979
      6  CA        13.3220   32.7760   35.8990 C.3     4  GLU4        0.1602
      7  C         12.7790   33.7630   36.9680 C.2     4  GLU4        0.2287
      8  O         11.6930   33.5720   37.5260 O.2     4  GLU4       -0.2864
      9  CB        12.4560   31.5000   35.7430 C.3     4  GLU4        0.0415
     10  CG        10.9190   31.6820   35.6000 C.3     4  GLU4        0.1163
     11  CD        10.4910   32.8230   34.6620 C.2     4  GLU4        0.3649
     12  OE1       10.9620   32.8910   33.4890 O.co2   4  GLU4       -0.2457
     13  OE2        9.6630   33.6520   35.1190 O.co2   4  GLU4       -0.2457
     14  N         13.6650   39.5260   34.2950 N.3     7  HIS7       -0.1241
     15  CA        13.3960   39.6870   32.8710 C.3     7  HIS7        0.1621
     16  C         13.7450   41.1130   32.5570 C.2     7  HIS7        0.2264
     17  O         13.1160   42.0220   33.0830 O.2     7  HIS7       -0.2867
     18  CB        11.9200   39.4390   32.5760 C.3     7  HIS7        0.0745
     19  CG        11.4020   38.1880   33.1980 C.ar    7  HIS7        0.0817
     20  ND1       11.6720   36.9390   32.6780 N.ar    7  HIS7       -0.2268
     21  CD2       10.6830   37.9850   34.3280 C.ar    7  HIS7        0.1154
     22  CE1       11.1250   36.0180   33.4550 C.ar    7  HIS7        0.1986
     23  NE2       10.5210   36.6270   34.4630 N.ar    7  HIS7       -0.2212
     24  N          9.2590   45.3170   30.2770 N.3    24  THR24      -0.1218
     25  CA         9.4120   43.9680   29.7400 C.3    24  THR24       0.1862
     26  C          8.5870   43.8050   28.4490 C.2    24  THR24       0.2287
     27  O          9.0710   43.2180   27.4840 O.2    24  THR24      -0.2866
     28  CB         9.0470   42.8540   30.7780 C.3    24  THR24       0.1770
     29  OG1        9.7190   43.0920   32.0200 O.3    24  THR24      -0.2211
     30  CG2        9.4480   41.4770   30.2750 C.3    24  THR24       0.0375
     31  N          9.9250   29.1300   19.6730 N.3    44  ASP44      -0.1225
     32  CA        10.3780   29.9850   20.7690 C.3    44  ASP44       0.1805
     33  C         11.1850   29.1040   21.6990 C.2    44  ASP44       0.2598
     34  O         10.6630   28.1550   22.2510 O.2    44  ASP44      -0.2718
     35  CB         9.1540   30.5350   21.4860 C.3    44  ASP44       0.1424
     36  CG         9.4710   31.1880   22.8240 C.2    44  ASP44       0.3668
     37  OD1       10.5330   31.8490   23.0120 O.co2  44  ASP44      -0.2456
     38  OD2        8.5890   31.0800   23.6940 O.co2  44  ASP44      -0.2456
     39  N         12.4670   29.4020   21.8510 N.am   45  VAL45      -0.1966
     40  CA        13.3910   28.5070   22.5550 C.3    45  VAL45       0.1727
     41  C         13.6660   29.0780   23.9470 C.2    45  VAL45       0.2617
     42  O         14.1830   30.1880   24.0710 O.2    45  VAL45      -0.2715
     43  CB        14.7130   28.3460   21.7540 C.3    45  VAL45       0.0290
     44  CG1       15.6640   27.3980   22.4460 C.3    45  VAL45       0.0023
     45  CG2       14.4300   27.8830   20.3410 C.3    45  VAL45       0.0023
     46  N         13.3190   28.3280   24.9900 N.am   46  GLY46      -0.1940
     47  CA        13.3300   28.8720   26.3430 C.3    46  GLY46       0.2014
     48  C         12.1450   29.8060   26.5830 C.2    46  GLY46       0.2639
     49  O         12.3220   31.0060   26.8910 O.2    46  GLY46      -0.2714
     50  N         10.9410   29.2320   26.4480 N.am   47  CYS47      -0.1953
     51  CA         9.6460   29.9100   26.6420 C.3    47  CYS47       0.1843
     52  C          9.3440   30.4210   28.0750 C.2    47  CYS47       0.2626
     53  O          8.4330   31.2430   28.2660 O.2    47  CYS47      -0.2714
     54  CB         8.5160   28.9770   26.2110 C.3    47  CYS47       0.0997
     55  SG         8.4830   27.4460   27.1780 S.3    47  CYS47      -0.0797
     56  N         10.0780   29.9340   29.0730 N.am   48  GLY48      -0.1940
     57  CA         9.8050   30.3230   30.4540 C.3    48  GLY48       0.2014
     58  C          8.3930   29.9270   30.8450 C.2    48  GLY48       0.2639
     59  O          8.0070   28.7870   30.6290 O.2    48  GLY48      -0.2714
     60  N          7.6230   30.8650   31.4000 N.am   49  ILE49      -0.1963
     61  CA         6.2160   30.6020   31.7590 C.3    49  ILE49       0.1727
     62  C          5.1940   31.1110   30.7250 C.2    49  ILE49       0.2617
     63  O          3.9830   31.0770   30.9830 O.2    49  ILE49      -0.2715
     64  CB         5.8370   31.0490   33.2190 C.3    49  ILE49       0.0290
     65  CG1        6.0060   32.5550   33.4040 C.3    49  ILE49       0.0022
     66  CG2        6.6440   30.2680   34.2420 C.3    49  ILE49       0.0023
     67  CD1        5.3520   33.1120   34.6320 C.3    49  ILE49       0.0001
     68  N          5.6850   31.5850   29.5750 N.am   50  GLY50      -0.1940
     69  CA         4.8530   31.7630   28.3800 C.3    50  GLY50       0.2014
     70  C          4.4110   33.1690   28.0100 C.2    50  GLY50       0.2639
     71  O          3.7390   33.3660   26.9930 O.2    50  GLY50      -0.2714
     72  N          4.7900   34.1580   28.8120 N.am   51  LYS51      -0.1963
     73  CA         4.3120   35.5300   28.5900 C.3    51  LYS51       0.1713
     74  C          4.6820   36.0840   27.2000 C.2    51  LYS51       0.2458
     75  O          3.7980   36.5500   26.4690 O.2    51  LYS51      -0.2730
     76  CB         4.7500   36.4750   29.7200 C.3    51  LYS51       0.0311
     77  CG         4.0480   36.2150   31.0350 C.3    51  LYS51       0.0038
     78  CD         4.6520   37.0260   32.1850 C.3    51  LYS51       0.0206
     79  CE         4.1690   38.4720   32.1670 C.3    51  LYS51       0.1093
     80  NZ         3.0790   38.6840   33.1800 N.3    51  LYS51      -0.1314
     81  N          5.9790   36.0670   26.8410 N.am   52  PRO52      -0.2727
     82  CA         6.4040   36.5560   25.5200 C.3    52  PRO52       0.1402
     83  C          5.7000   35.9140   24.3270 C.2    52  PRO52       0.2269
     84  O          5.3790   36.6090   23.3650 O.2    52  PRO52      -0.2865
     85  CB         7.8920   36.2340   25.5060 C.3    52  PRO52       0.0296
     86  CG         8.2650   36.3720   26.9800 C.3    52  PRO52       0.0237
     87  CD         7.1400   35.6720   27.6560 C.3    52  PRO52       0.0939
     88  N          9.4240   25.9280   24.0010 N.3    67  ILE67      -0.1231
     89  CA        10.3180   24.8400   24.3950 C.3    67  ILE67       0.1692
     90  C         11.0950   25.2030   25.6640 C.2    67  ILE67       0.2593
     91  O         11.5800   26.3330   25.7840 O.2    67  ILE67      -0.2718
     92  CB        11.2840   24.5240   23.2060 C.3    67  ILE67       0.0266
     93  CG1       10.6430   23.5360   22.2380 C.3    67  ILE67       0.0019
     94  CG2       12.7010   24.1040   23.6510 C.3    67  ILE67       0.0020
     95  CD1        9.8760   22.4470   22.8830 C.3    67  ILE67       0.0001
     96  N         11.2020   24.2480   26.5940 N.am   68  SER68      -0.1938
     97  CA        11.9430   24.4210   27.8530 C.3    68  SER68       0.2055
     98  C         12.3650   23.0980   28.5220 C.2    68  SER68       0.2643
     99  O         11.8100   22.0240   28.2470 O.2    68  SER68      -0.2714
    100  CB        11.1350   25.2720   28.8390 C.3    68  SER68       0.2130
    101  OG        11.7340   25.3010   30.1280 O.3    68  SER68      -0.2179
    102  N         13.3530   23.1970   29.4060 N.am   69  ILE69      -0.1963
    103  CA        13.8570   22.0470   30.1470 C.3    69  ILE69       0.1727
    104  C         13.3720   22.0000   31.6050 C.2    69  ILE69       0.2616
    105  O         13.9320   21.2730   32.4270 O.2    69  ILE69      -0.2715
    106  CB        15.4180   21.9430   30.0970 C.3    69  ILE69       0.0290
    107  CG1       16.0900   23.2240   30.6290 C.3    69  ILE69       0.0022
    108  CG2       15.8890   21.5610   28.6890 C.3    69  ILE69       0.0023
    109  CD1       17.4970   22.9960   31.2100 C.3    69  ILE69       0.0001
    110  N         12.3390   22.7830   31.9120 N.am   70  SER70      -0.1950
    111  CA        11.7360   22.8030   33.2390 C.3    70  SER70       0.1924
    112  C         10.2450   22.4540   33.1520 C.2    70  SER70       0.2314
    113  O          9.4350   23.2280   32.6350 O.2    70  SER70      -0.2863
    114  CB        11.9530   24.1730   33.8940 C.3    70  SER70       0.2116
    115  OG        11.3190   24.2680   35.1670 O.3    70  SER70      -0.2180
    116  N          7.2950   24.8390   34.4030 N.3    73  GLN73      -0.1245
    117  CA         7.1540   25.9630   33.4480 C.3    73  GLN73       0.1566
    118  C          6.3260   25.6400   32.1920 C.2    73  GLN73       0.2260
    119  O          5.5440   26.4750   31.7440 O.2    73  GLN73      -0.2867
    120  CB         8.5180   26.4690   33.0030 C.3    73  GLN73       0.0367
    121  CG         9.3180   27.2210   34.0460 C.3    73  GLN73       0.0905
    122  CD        10.5610   27.8670   33.4360 C.2    73  GLN73       0.2608
    123  OE1       10.9180   27.6020   32.2740 O.2    73  GLN73      -0.2717
    124  NE2       11.2290   28.7090   34.2130 N.am   73  GLN73      -0.0878
    125  N         11.5840   20.1370   25.8630 N.3    95  ALA95      -0.1231
    126  CA        12.6940   19.7050   25.0040 C.3    95  ALA95       0.1694
    127  C         13.9520   20.5670   25.1370 C.2    95  ALA95       0.2592
    128  O         13.8830   21.7370   25.5120 O.2    95  ALA95      -0.2718
    129  CB        12.2430   19.6200   23.5480 C.3    95  ALA95       0.0304
    130  N         15.0960   19.9570   24.8310 N.am   96  ASP96      -0.1960
    131  CA        16.4120   20.5820   24.9590 C.3    96  ASP96       0.1840
    132  C         16.9400   21.0990   23.6190 C.2    96  ASP96       0.2621
    133  O         17.0500   20.3400   22.6390 O.2    96  ASP96      -0.2715
    134  CB        17.4040   19.5710   25.5440 C.3    96  ASP96       0.1450
    135  CG        18.7610   20.1870   25.8860 C.2    96  ASP96       0.3671
    136  OD1       19.0880   21.2980   25.4070 O.co2  96  ASP96      -0.2456
    137  OD2       19.5190   19.5350   26.6400 O.co2  96  ASP96      -0.2456
    138  N         17.3130   22.3750   23.6090 N.am   97  ALA97      -0.1977
    139  CA        17.8500   23.0410   22.4300 C.3    97  ALA97       0.1597
    140  C         19.2100   22.5310   21.9600 C.2    97  ALA97       0.2287
    141  O         19.6620   22.9240   20.8930 O.2    97  ALA97      -0.2864
    142  CB        17.9280   24.5370   22.6710 C.3    97  ALA97       0.0319
    143  N         14.5960   34.6170   23.4680 N.3   112  LEU112     -0.1231
    144  CA        14.6160   35.7740   24.3550 C.3   112  LEU112      0.1693
    145  C         15.2260   35.4160   25.7280 C.2   112  LEU112      0.2592
    146  O         14.6070   34.7200   26.5340 O.2   112  LEU112     -0.2718
    147  CB        13.2130   36.3910   24.4110 C.3   112  LEU112      0.0284
    148  CG        12.7230   37.4630   25.4040 C.3   112  LEU112      0.0019
    149  CD1       13.7010   38.6020   25.6390 C.3   112  LEU112      0.0001
    150  CD2       11.3970   38.0500   24.9010 C.3   112  LEU112      0.0001
    151  N         16.4720   35.8490   25.9430 N.am  113  GLU113     -0.1966
    152  CA        17.2220   35.6490   27.1940 C.3   113  GLU113      0.1733
    153  C         17.3940   34.1690   27.5680 C.2   113  GLU113      0.2617
    154  O         17.2720   33.8190   28.7510 O.2   113  GLU113     -0.2715
    155  CB        16.5750   36.4010   28.3720 C.3   113  GLU113      0.0429
    156  CG        16.8810   37.9000   28.5020 C.3   113  GLU113      0.1163
    157  CD        16.0380   38.6070   29.5990 C.2   113  GLU113      0.3649
    158  OE1       15.8550   38.0680   30.7260 O.co2 113  GLU113     -0.2457
    159  OE2       15.5400   39.7240   29.3350 O.co2 113  GLU113     -0.2457
    160  N         17.6860   33.3020   26.5920 N.am  114  SER114     -0.1950
    161  CA        17.7860   31.8790   26.8780 C.3   114  SER114      0.1924
    162  C         19.1410   31.2240   26.5420 C.2   114  SER114      0.2314
    163  O         19.5180   30.2160   27.1640 O.2   114  SER114     -0.2863
    164  CB        16.6210   31.0960   26.2380 C.3   114  SER114      0.2116
    165  OG        16.6170   31.2010   24.8230 O.3   114  SER114     -0.2180
    166  N         22.2750   32.1030   27.0370 N.3   116  HIS116     -0.1226
    167  CA        23.3210   32.1890   28.0620 C.3   116  HIS116      0.1752
    168  C         23.2810   31.0280   29.0410 C.2   116  HIS116      0.2596
    169  O         24.1990   30.8590   29.8470 O.2   116  HIS116     -0.2718
    170  CB        23.2580   33.5240   28.8210 C.3   116  HIS116      0.0759
    171  CG        21.9990   33.7250   29.6170 C.ar  116  HIS116      0.0818
    172  ND1       21.0990   34.7310   29.3400 N.ar  116  HIS116     -0.2268
    173  CD2       21.5030   33.0620   30.6910 C.ar  116  HIS116      0.1154
    174  CE1       20.0980   34.6710   30.2000 C.ar  116  HIS116      0.1986
    175  NE2       20.3210   33.6720   31.0330 N.ar  116  HIS116     -0.2212
    176  N         22.2100   30.2430   28.9680 N.am  117  HIS117     -0.1975
    177  CA        22.0910   29.0210   29.7400 C.3   117  HIS117      0.1656
    178  C         22.8150   27.8760   29.0770 C.2   117  HIS117      0.2291
    179  O         23.4910   27.1020   29.7520 O.2   117  HIS117     -0.2864
    180  CB        20.6310   28.6330   29.9310 C.3   117  HIS117      0.0771
    181  CG        19.8540   29.6040   30.7560 C.ar  117  HIS117      0.0820
    182  ND1       20.0540   29.7560   32.1120 N.ar  117  HIS117     -0.2267
    183  CD2       18.8770   30.4760   30.4190 C.ar  117  HIS117      0.1154
    184  CE1       19.2240   30.6720   32.5790 C.ar  117  HIS117      0.1986
    185  NE2       18.4970   31.1230   31.5720 N.ar  117  HIS117     -0.2212
    186  N         25.2300   25.2780   27.6200 N.3   118  PRO118     -0.2116
    187  CA        26.6780   25.1480   27.8260 C.3   118  PRO118      0.1372
    188  C         27.5360   25.4070   26.5680 C.2   118  PRO118      0.2244
    189  O         28.7640   25.4570   26.6750 O.2   118  PRO118     -0.2868
    190  CB        26.8390   23.7100   28.3360 C.3   118  PRO118      0.0268
    191  CG        25.5980   22.9990   27.9250 C.3   118  PRO118      0.0207
    192  CD        24.5130   23.9950   27.7730 C.3   118  PRO118      0.0892
@<TRIPOS>BOND
     1    31    32    1
     2    45    43    1
     3    32    35    1
     4    32    33    1
     5   141   140    2
     6    35    36    1
     7    33    39   am
     8    33    34    2
     9    43    44    1
    10    43    40    1
    11    39    40    1
    12   140   139    1
    13    93    95    1
    14    93    92    1
    15   139   142    1
    16   139   138    1
    17    40    41    1
    18   133   132    2
    19    36    37   ar
    20    36    38   ar
    21    92    94    1
    22    92    89    1
    23    84    83    2
    24   143   144    1
    25   129   126    1
    26   138   132   am
    27   132   131    1
    28    41    42    2
    29    41    46   am
    30    88    89    1
    31    83    82    1
    32   144   147    1
    33   144   145    1
    34    89    90    1
    35   147   148    1
    36   165   164    1
    37   130   131    1
    38   130   127   am
    39   150   148    1
    40   131   134    1
    41    46    47    1
    42   126   127    1
    43   126   125    1
    44   127   128    2
    45   148   149    1
    46   136   135   ar
    47    85    82    1
    48    85    86    1
    49    82    81    1
    50   134   135    1
    51    90    91    2
    52    90    96   am
    53   145   151   am
    54   145   146    2
    55   135   137   ar
    56   151   152    1
    57    54    51    1
    58    54    55    1
    59   164   161    1
    60    47    48    1
    61    50    48   am
    62    50    51    1
    63    75    74    2
    64   162   161    1
    65   162   163    2
    66   188   189    2
    67   188   187    1
    68    48    49    2
    69   160   161    1
    70   160   153   am
    71    96    97    1
    72    51    52    1
    73    81    74   am
    74    81    87    1
    75    86    87    1
    76    71    70    2
    77   166   167    1
    78   152   153    1
    79   152   155    1
    80    74    73    1
    81    27    26    2
    82   153   154    2
    83   186   192    1
    84   186   187    1
    85   192   191    1
    86   187   190    1
    87    97    98    1
    88    97   100    1
    89   191   190    1
    90    70    69    1
    91    70    72   am
    92   167   170    1
    93   167   168    1
    94    52    53    2
    95    52    56   am
    96    99    98    2
    97   155   156    1
    98    69    68    1
    99    26    25    1
   100   156   157    1
   101    98   102   am
   102    73    72    1
   103    73    76    1
   104   108   106    1
   105   170   171    1
   106   100   101    1
   107   176   168   am
   108   176   177    1
   109   168   169    2
   110    56    57    1
   111   178   177    1
   112   178   179    2
   113   159   157   ar
   114   172   171   ar
   115   172   174   ar
   116   102   103    1
   117    68    62   am
   118   157   158   ar
   119   171   173   ar
   120    76    77    1
   121   177   180    1
   122    25    24    1
   123    25    28    1
   124   180   181    1
   125   106   103    1
   126   106   107    1
   127   103   104    1
   128   174   175   ar
   129    30    28    1
   130   183   181   ar
   131   183   185   ar
   132    57    58    1
   133    59    58    2
   134   107   109    1
   135   173   175   ar
   136    62    63    2
   137    62    61    1
   138   181   182   ar
   139    28    29    1
   140    58    60   am
   141    77    78    1
   142    60    61    1
   143   185   184   ar
   144   104   110   am
   145   104   105    2
   146   119   118    2
   147    61    64    1
   148   110   111    1
   149   182   184   ar
   150    79    78    1
   151    79    80    1
   152   118   117    1
   153   123   122    2
   154    16    15    1
   155    16    17    2
   156    18    15    1
   157    18    19    1
   158   113   112    2
   159    20    19   ar
   160    20    22   ar
   161    15    14    1
   162   120   117    1
   163   120   121    1
   164   112   111    1
   165    19    21   ar
   166    64    65    1
   167    64    66    1
   168   111   114    1
   169    65    67    1
   170   122   121    1
   171   122   124   am
   172   117   116    1
   173    22    23   ar
   174    12    11   ar
   175   114   115    1
   176    21    23   ar
   177    11    13   ar
   178    11    10    1
   179     4     3    2
   180    10     9    1
   181     9     6    1
   182     6     5    1
   183     6     7    1
   184     3     5   am
   185     3     2    1
   186     2     1    1
   187     7     8    2
