@<TRIPOS>MOLECULE
tmp/3buvB01.pdb
 146 146 0 0 0
SMALL
GASTEIGER

@<TRIPOS>ATOM
      1  N          5.4780  -14.5120   -3.9700 N.3    25  TYR25      -0.1241
      2  CA         6.5650  -15.3850   -4.3760 C.3    25  TYR25       0.1605
      3  C          6.1560  -16.8120   -4.0360 C.2    25  TYR25       0.2264
      4  O          5.6620  -17.0860   -2.9380 O.2    25  TYR25      -0.2867
      5  CB         7.8680  -15.0540   -3.6460 C.3    25  TYR25       0.0534
      6  CG         8.8940  -16.1630   -3.7540 C.ar   25  TYR25      -0.0201
      7  CD1        9.3450  -16.6080   -4.9990 C.ar   25  TYR25      -0.0009
      8  CD2        9.3850  -16.7960   -2.6130 C.ar   25  TYR25      -0.0009
      9  CE1       10.2550  -17.6620   -5.1020 C.ar   25  TYR25       0.0417
     10  CE2       10.2960  -17.8470   -2.7050 C.ar   25  TYR25       0.0417
     11  CZ        10.7250  -18.2750   -3.9520 C.ar   25  TYR25       0.1957
     12  OH        11.6170  -19.3190   -4.0480 O.3    25  TYR25      -0.2866
     13  N          8.1810  -21.7920   -8.5110 N.3    28  PRO28      -0.2116
     14  CA         7.5850  -22.2100   -9.7840 C.3    28  PRO28       0.1372
     15  C          7.4830  -23.7260   -9.9370 C.2    28  PRO28       0.2244
     16  O          6.5400  -24.2330  -10.5420 O.2    28  PRO28      -0.2868
     17  CB         8.5200  -21.5880  -10.8160 C.3    28  PRO28       0.0268
     18  CG         8.9560  -20.3300  -10.1440 C.3    28  PRO28       0.0207
     19  CD         9.2490  -20.8020   -8.7360 C.3    28  PRO28       0.0892
     20  N         10.1990  -11.7510  -12.0250 N.3    56  ILE56      -0.1231
     21  CA        10.9540  -12.9890  -11.8800 C.3    56  ILE56       0.1692
     22  C         10.2540  -14.0830  -11.0720 C.2    56  ILE56       0.2592
     23  O         10.7560  -15.2040  -10.9980 O.2    56  ILE56      -0.2718
     24  CB        12.3630  -12.7320  -11.2880 C.3    56  ILE56       0.0266
     25  CG1       12.2540  -12.1640   -9.8740 C.3    56  ILE56       0.0019
     26  CG2       13.1370  -11.7850  -12.1990 C.3    56  ILE56       0.0020
     27  CD1       13.5900  -12.0600   -9.1630 C.3    56  ILE56       0.0001
     28  N          9.1030  -13.7750  -10.4750 N.am   57  TYR57      -0.1962
     29  CA         8.3680  -14.7960   -9.7240 C.3    57  TYR57       0.1771
     30  C          7.6050  -15.6710  -10.7240 C.2    57  TYR57       0.2619
     31  O          6.9950  -16.6750  -10.3530 O.2    57  TYR57      -0.2715
     32  CB         7.3820  -14.1690   -8.7260 C.3    57  TYR57       0.0574
     33  CG         7.9990  -13.3830   -7.5800 C.ar   57  TYR57      -0.0198
     34  CD1        9.3820  -13.3470   -7.3740 C.ar   57  TYR57      -0.0009
     35  CD2        7.1890  -12.6460   -6.7170 C.ar   57  TYR57      -0.0009
     36  CE1        9.9390  -12.5860   -6.3370 C.ar   57  TYR57       0.0417
     37  CE2        7.7330  -11.8860   -5.6800 C.ar   57  TYR57       0.0417
     38  CZ         9.1030  -11.8560   -5.4970 C.ar   57  TYR57       0.1957
     39  OH         9.6260  -11.0670   -4.4970 O.3    57  TYR57      -0.2866
     40  N          7.6450  -15.2650  -11.9930 N.am   58  GLN58      -0.1977
     41  CA         7.0130  -15.9810  -13.1040 C.3    58  GLN58       0.1601
     42  C          5.4910  -16.0400  -13.0930 C.2    58  GLN58       0.2287
     43  O          4.8880  -16.7890  -13.8640 O.2    58  GLN58      -0.2864
     44  CB         7.5780  -17.4070  -13.1900 C.3    58  GLN58       0.0394
     45  CG         9.0680  -17.4550  -13.4950 C.3    58  GLN58       0.0908
     46  CD         9.5960  -18.8700  -13.6220 C.2    58  GLN58       0.2608
     47  OE1        8.9290  -19.7450  -14.1680 O.2    58  GLN58      -0.2717
     48  NE2       10.8090  -19.0970  -13.1290 N.am   58  GLN58      -0.0878
     49  N         14.9430   -6.7020  -11.2820 N.3    88  TRP88      -0.1241
     50  CA        15.9640   -7.6770  -10.9120 C.3    88  TRP88       0.1605
     51  C         17.3950   -7.2720  -11.2670 C.2    88  TRP88       0.2264
     52  O         17.6210   -6.4120  -12.1220 O.2    88  TRP88      -0.2867
     53  CB        15.6380   -9.0450  -11.5260 C.3    88  TRP88       0.0550
     54  CG        16.5970  -10.1350  -11.1080 C.ar   88  TRP88       0.0003
     55  CD1       17.3710  -10.9010  -11.9310 C.ar   88  TRP88       0.0946
     56  CD2       16.9200  -10.5350   -9.7660 C.ar   88  TRP88       0.0152
     57  NE1       18.1590  -11.7490  -11.1890 N.ar   88  TRP88      -0.2442
     58  CE2       17.9030  -11.5460   -9.8590 C.ar   88  TRP88       0.0810
     59  CE3       16.4770  -10.1370   -8.4980 C.ar   88  TRP88       0.0012
     60  CZ2       18.4530  -12.1640   -8.7300 C.ar   88  TRP88       0.0191
     61  CZ3       17.0260  -10.7540   -7.3720 C.ar   88  TRP88       0.0001
     62  CH2       18.0040  -11.7560   -7.5000 C.ar   88  TRP88       0.0015
     63  N         15.1850   -4.5720   -6.9160 N.3   119  GLU119     -0.1245
     64  CA        15.0530   -5.8320   -6.1830 C.3   119  GLU119      0.1567
     65  C         16.1990   -6.1630   -5.2290 C.2   119  GLU119      0.2260
     66  O         15.9670   -6.6210   -4.1080 O.2   119  GLU119     -0.2867
     67  CB        14.8260   -6.9700   -7.1810 C.3   119  GLU119      0.0388
     68  CG        14.1760   -8.2100   -6.5820 C.3   119  GLU119      0.1160
     69  CD        13.3000   -8.9510   -7.5800 C.2   119  GLU119      0.3649
     70  OE1       13.4180   -8.6920   -8.7970 O.co2 119  GLU119     -0.2457
     71  OE2       12.4950   -9.8010   -7.1470 O.co2 119  GLU119     -0.2457
     72  N         18.0730  -15.1760  -14.9340 N.3   130  ILE130     -0.1231
     73  CA        18.0970  -14.3790  -13.7120 C.3   130  ILE130      0.1692
     74  C         19.3150  -14.6920  -12.8500 C.2   130  ILE130      0.2592
     75  O         19.7580  -13.8570  -12.0630 O.2   130  ILE130     -0.2718
     76  CB        16.8240  -14.6050  -12.8650 C.3   130  ILE130      0.0266
     77  CG1       16.6940  -16.0860  -12.4990 C.3   130  ILE130      0.0019
     78  CG2       15.5990  -14.1260  -13.6320 C.3   130  ILE130      0.0020
     79  CD1       15.5280  -16.3910  -11.5770 C.3   130  ILE130      0.0001
     80  N         19.8560  -15.8950  -13.0070 N.am  131  TYR131     -0.1976
     81  CA        21.0210  -16.3240  -12.2390 C.3   131  TYR131      0.1639
     82  C         22.1850  -16.6630  -13.1700 C.2   131  TYR131      0.2290
     83  O         22.5410  -17.8310  -13.3310 O.2   131  TYR131     -0.2864
     84  CB        20.6550  -17.5480  -11.3960 C.3   131  TYR131      0.0560
     85  CG        19.5330  -17.3000  -10.4100 C.ar  131  TYR131     -0.0198
     86  CD1       18.6000  -18.2960  -10.1210 C.ar  131  TYR131     -0.0009
     87  CD2       19.4070  -16.0720   -9.7600 C.ar  131  TYR131     -0.0009
     88  CE1       17.5670  -18.0740   -9.2110 C.ar  131  TYR131      0.0417
     89  CE2       18.3800  -15.8420   -8.8490 C.ar  131  TYR131      0.0417
     90  CZ        17.4640  -16.8450   -8.5800 C.ar  131  TYR131      0.1957
     91  OH        16.4450  -16.6140   -7.6840 O.3   131  TYR131     -0.2866
     92  N          9.5600   -8.1440    4.2260 N.3   218  TYR218     -0.1241
     93  CA         9.3730   -9.3380    3.4280 C.3   218  TYR218      0.1605
     94  C          9.6220  -10.4980    4.3400 C.2   218  TYR218      0.2264
     95  O         10.2860  -10.3470    5.3690 O.2   218  TYR218     -0.2867
     96  CB        10.2120   -9.3090    2.1490 C.3   218  TYR218      0.0534
     97  CG        11.7140   -9.5830    2.1830 C.ar  218  TYR218     -0.0201
     98  CD1       12.2540  -10.7910    2.6390 C.ar  218  TYR218     -0.0009
     99  CD2       12.5910   -8.6380    1.6730 C.ar  218  TYR218     -0.0009
    100  CE1       13.6230  -11.0560    2.5620 C.ar  218  TYR218      0.0417
    101  CE2       13.9570   -8.8930    1.5620 C.ar  218  TYR218      0.0417
    102  CZ        14.4640  -10.1030    1.9990 C.ar  218  TYR218      0.1957
    103  OH        15.7960  -10.3800    1.8750 O.3   218  TYR218     -0.2866
    104  N         17.1800  -21.1290    0.0700 N.3   229  TRP229     -0.1241
    105  CA        17.4810  -19.8000    0.5900 C.3   229  TRP229      0.1605
    106  C         17.5090  -19.7070    2.1090 C.2   229  TRP229      0.2264
    107  O         17.9790  -18.7120    2.6590 O.2   229  TRP229     -0.2867
    108  CB        16.4580  -18.7870    0.0680 C.3   229  TRP229      0.0550
    109  CG        16.1810  -18.9010   -1.3940 C.ar  229  TRP229      0.0003
    110  CD1       15.1000  -19.4960   -1.9790 C.ar  229  TRP229      0.0946
    111  CD2       17.0030  -18.4200   -2.4630 C.ar  229  TRP229      0.0152
    112  NE1       15.1980  -19.4140   -3.3470 N.ar  229  TRP229     -0.2442
    113  CE2       16.3570  -18.7590   -3.6710 C.ar  229  TRP229      0.0810
    114  CE3       18.2260  -17.7360   -2.5170 C.ar  229  TRP229      0.0012
    115  CZ2       16.8900  -18.4360   -4.9240 C.ar  229  TRP229      0.0191
    116  CZ3       18.7580  -17.4140   -3.7650 C.ar  229  TRP229      0.0001
    117  CH2       18.0880  -17.7660   -4.9500 C.ar  229  TRP229      0.0015
    118  N         17.1470  -15.1370    5.5530 N.3   308  VAL308     -0.1245
    119  CA        17.5870  -14.9980    4.1710 C.3   308  VAL308      0.1561
    120  C         18.9200  -14.2570    4.1430 C.2   308  VAL308      0.2260
    121  O         18.9590  -13.0250    4.1120 O.2   308  VAL308     -0.2867
    122  CB        16.5400  -14.2210    3.3450 C.3   308  VAL308      0.0252
    123  CG1       16.9360  -14.2070    1.8770 C.3   308  VAL308      0.0019
    124  CG2       15.1630  -14.8590    3.5220 C.3   308  VAL308      0.0019
    125  N         21.3880  -14.8640    1.7530 N.3   310  LEU310     -0.1245
    126  CA        21.8920  -14.7370    0.3840 C.3   310  LEU310      0.1561
    127  C         23.4010  -14.9650    0.3580 C.2   310  LEU310      0.2260
    128  O         24.1360  -14.2660   -0.3400 O.2   310  LEU310     -0.2867
    129  CB        21.5750  -13.3430   -0.1690 C.3   310  LEU310      0.0270
    130  CG        20.1020  -12.9260   -0.1380 C.3   310  LEU310      0.0019
    131  CD1       19.9550  -11.5320   -0.7200 C.3   310  LEU310      0.0001
    132  CD2       19.2660  -13.9220   -0.9260 C.3   310  LEU310      0.0001
    133  N         25.9160  -14.9520   -2.6780 N.3   313  TRP313     -0.1241
    134  CA        26.3570  -13.7150   -3.3150 C.3   313  TRP313      0.1605
    135  C         27.1680  -12.8340   -2.3750 C.2   313  TRP313      0.2264
    136  O         27.3220  -11.6370   -2.6160 O.2   313  TRP313     -0.2867
    137  CB        25.1500  -12.9240   -3.8350 C.3   313  TRP313      0.0550
    138  CG        24.3050  -13.6860   -4.8080 C.ar  313  TRP313      0.0003
    139  CD1       24.7430  -14.4680   -5.8380 C.ar  313  TRP313      0.0946
    140  CD2       22.8720  -13.7250   -4.8560 C.ar  313  TRP313      0.0152
    141  NE1       23.6750  -14.9930   -6.5230 N.ar  313  TRP313     -0.2442
    142  CE2       22.5140  -14.5530   -5.9430 C.ar  313  TRP313      0.0810
    143  CE3       21.8570  -13.1390   -4.0890 C.ar  313  TRP313      0.0012
    144  CZ2       21.1820  -14.8130   -6.2820 C.ar  313  TRP313      0.0191
    145  CZ3       20.5290  -13.3980   -4.4260 C.ar  313  TRP313      0.0001
    146  CH2       20.2060  -14.2280   -5.5140 C.ar  313  TRP313      0.0015
@<TRIPOS>BOND
     1    72    73    1
     2    47    46    2
     3    43    42    2
     4    73    76    1
     5    73    74    1
     6    78    76    1
     7    46    45    1
     8    46    48   am
     9    45    44    1
    10    83    82    2
    11    44    41    1
    12    82    81    1
    13    41    42    1
    14    41    40    1
    15    80    74   am
    16    80    81    1
    17    76    77    1
    18    74    75    2
    19    77    79    1
    20    81    84    1
    21    26    24    1
    22    52    51    2
    23    20    21    1
    24    40    30   am
    25    55    57   ar
    26    55    54   ar
    27    21    24    1
    28    21    22    1
    29    53    54    1
    30    53    50    1
    31    84    85    1
    32    24    25    1
    33    49    50    1
    34    51    50    1
    35    57    58   ar
    36    54    56   ar
    37    22    23    2
    38    22    28   am
    39    17    18    1
    40    17    14    1
    41    30    31    2
    42    30    29    1
    43    16    15    2
    44    28    29    1
    45    85    86   ar
    46    85    87   ar
    47    18    19    1
    48    86    88   ar
    49    15    14    1
    50    25    27    1
    51    58    56   ar
    52    58    60   ar
    53    14    13    1
    54    56    59   ar
    55    87    89   ar
    56    29    32    1
    57    88    90   ar
    58    89    90   ar
    59    70    69   ar
    60    19    13    1
    61    60    62   ar
    62    32    33    1
    63    90    91    1
    64    59    61   ar
    65    33    34   ar
    66    33    35   ar
    67    69    71   ar
    68    69    68    1
    69    62    61   ar
    70    34    36   ar
    71    67    68    1
    72    67    64    1
    73    63    64    1
    74    35    37   ar
    75   141   142   ar
    76   141   139   ar
    77    36    38   ar
    78   144   142   ar
    79   144   146   ar
    80    64    65    1
    81   142   140   ar
    82   139   138   ar
    83    37    38   ar
    84   146   145   ar
    85    38    39    1
    86    65    66    2
    87     9     7   ar
    88     9    11   ar
    89     7     6   ar
    90   117   115   ar
    91   117   116   ar
    92   115   113   ar
    93   140   138   ar
    94   140   143   ar
    95   138   137    1
    96   145   143   ar
    97     2     3    1
    98     2     1    1
    99     2     5    1
   100    12    11    1
   101     3     4    2
   102    11    10   ar
   103   137   134    1
   104   116   114   ar
   105     6     5    1
   106     6     8   ar
   107   113   112   ar
   108   113   111   ar
   109   112   110   ar
   110   134   133    1
   111   134   135    1
   112    10     8   ar
   113   136   135    2
   114   114   111   ar
   115   111   109   ar
   116   110   109   ar
   117   109   108    1
   118   132   130    1
   119   131   130    1
   120   128   127    2
   121   129   130    1
   122   129   126    1
   123   108   105    1
   124   104   105    1
   125   127   126    1
   126   126   125    1
   127   105   106    1
   128   101    99   ar
   129   101   102   ar
   130    99    97   ar
   131   103   102    1
   132   123   122    1
   133   102   100   ar
   134   106   107    2
   135    96    97    1
   136    96    93    1
   137    97    98   ar
   138   100    98   ar
   139   122   124    1
   140   122   119    1
   141    93    92    1
   142    93    94    1
   143   121   120    2
   144   120   119    1
   145   119   118    1
   146    94    95    2
