@<TRIPOS>MOLECULE
tmp/3buwB00.pdb
 160 155 0 0 0
SMALL
GASTEIGER

@<TRIPOS>ATOM
      1  N          7.0100    3.5740   30.7380 N.3    33  ASN33      -0.1225
      2  CA         7.9350    3.3920   29.6430 C.3    33  ASN33       0.1785
      3  C          8.0720    1.9280   29.2270 C.2    33  ASN33       0.2598
      4  O          9.0790    1.2690   29.5120 O.2    33  ASN33      -0.2718
      5  CB         9.3050    3.9680   30.0180 C.3    33  ASN33       0.1169
      6  CG        10.2600    4.0300   28.8390 C.2    33  ASN33       0.2627
      7  OD1       11.3440    4.6200   28.9330 O.2    33  ASN33      -0.2716
      8  ND2        9.8730    3.4220   27.7250 N.am   33  ASN33      -0.0877
      9  N          7.0310    1.4360   28.5670 N.am   34  SER34      -0.1938
     10  CA         6.9600    0.0690   28.0890 C.3    34  SER34       0.2040
     11  C          6.3970   -0.0150   26.6700 C.2    34  SER34       0.2485
     12  O          5.4140    0.6540   26.3560 O.2    34  SER34      -0.2729
     13  CB         6.0730   -0.7540   29.0270 C.3    34  SER34       0.2129
     14  OG         5.7870   -2.0260   28.4790 O.3    34  SER34      -0.2179
     15  N          7.0200   -0.8170   25.7910 N.am   35  PRO35      -0.2726
     16  CA         6.4860   -0.9110   24.4280 C.3    35  PRO35       0.1402
     17  C          5.0470   -1.4620   24.4530 C.2    35  PRO35       0.2269
     18  O          4.7660   -2.4450   25.1390 O.2    35  PRO35      -0.2865
     19  CB         7.4540   -1.8710   23.7440 C.3    35  PRO35       0.0296
     20  CG         8.7580   -1.5770   24.4440 C.3    35  PRO35       0.0237
     21  CD         8.3280   -1.4890   25.8920 C.3    35  PRO35       0.0939
     22  N          7.8870    7.6220   22.7690 N.3    40  ASP40      -0.1239
     23  CA         9.0450    7.2630   21.9610 C.3    40  ASP40       0.1674
     24  C          8.6510    7.0670   20.5010 C.2    40  ASP40       0.2266
     25  O          9.3560    7.4850   19.5800 O.2    40  ASP40      -0.2867
     26  CB         9.6950    5.9660   22.4610 C.3    40  ASP40       0.1410
     27  CG        10.6730    6.1950   23.6010 C.2    40  ASP40       0.3668
     28  OD1       10.9520    7.3660   23.9200 O.co2  40  ASP40      -0.2456
     29  OD2       11.1680    5.1980   24.1670 O.co2  40  ASP40      -0.2456
     30  N          1.7950   -5.9450   26.1490 N.3   228  TYR228     -0.1227
     31  CA         2.4620   -6.7360   27.1540 C.3   228  TYR228      0.1736
     32  C          1.9110   -6.4780   28.5530 C.2   228  TYR228      0.2595
     33  O          1.5880   -7.4120   29.2920 O.2   228  TYR228     -0.2718
     34  CB         3.9630   -6.4300   27.1130 C.3   228  TYR228      0.0548
     35  CG         4.8020   -7.2360   28.0760 C.ar  228  TYR228     -0.0200
     36  CD1        4.8610   -6.9000   29.4290 C.ar  228  TYR228     -0.0009
     37  CD2        5.5490   -8.3300   27.6320 C.ar  228  TYR228     -0.0009
     38  CE1        5.6480   -7.6310   30.3200 C.ar  228  TYR228      0.0417
     39  CE2        6.3420   -9.0700   28.5180 C.ar  228  TYR228      0.0417
     40  CZ         6.3840   -8.7120   29.8570 C.ar  228  TYR228      0.1957
     41  OH         7.1660   -9.4260   30.7420 O.3   228  TYR228     -0.2866
     42  N          1.7960   -5.2020   28.9120 N.am  229  ASP229     -0.1974
     43  CA         1.2700   -4.8620   30.2180 C.3   229  ASP229      0.1709
     44  C         -0.1990   -5.2450   30.3800 C.2   229  ASP229      0.2293
     45  O         -0.6200   -5.6790   31.4570 O.2   229  ASP229     -0.2864
     46  CB         1.4860   -3.3740   30.5190 C.3   229  ASP229      0.1436
     47  CG         2.9580   -3.0250   30.6870 C.2   229  ASP229      0.3671
     48  OD1        3.7070   -3.8680   31.2230 O.co2 229  ASP229     -0.2456
     49  OD2        3.3600   -1.9100   30.2910 O.co2 229  ASP229     -0.2456
     50  N         -1.1060  -13.0190   21.9430 N.3   248  ARG248     -0.1245
     51  CA        -1.3090  -11.8370   21.1440 C.3   248  ARG248      0.1563
     52  C         -0.1210  -11.5740   20.2420 C.2   248  ARG248      0.2260
     53  O          0.9040  -12.2440   20.3430 O.2   248  ARG248     -0.2867
     54  CB        -1.4280  -10.6440   22.0850 C.3   248  ARG248      0.0307
     55  CG        -0.0770  -10.4050   22.7840 C.3   248  ARG248      0.0489
     56  CD        -0.0580   -9.3060   23.8130 C.3   248  ARG248      0.2205
     57  NE         1.1880   -9.3660   24.5770 N.pl3 248  ARG248     -0.0865
     58  CZ         2.3540   -8.8670   24.1710 C.cat 248  ARG248      0.5346
     59  NH1        2.4550   -8.2530   23.0010 N.pl3 248  ARG248      0.1354
     60  NH2        3.4260   -8.9970   24.9410 N.pl3 248  ARG248      0.1354
     61  N          3.1870   -9.8810   19.1960 N.3   250  SER250     -0.1202
     62  CA         4.2650   -9.1570   19.8290 C.3   250  SER250      0.2020
     63  C          4.3800   -7.7840   19.1440 C.2   250  SER250      0.2619
     64  O          4.2630   -7.6990   17.9230 O.2   250  SER250     -0.2717
     65  CB         5.5770   -9.9340   19.6570 C.3   250  SER250      0.2103
     66  OG         6.7020   -9.0870   19.8280 O.3   250  SER250     -0.2182
     67  N          4.5660   -6.7050   19.8920 N.am  251  CYS251     -0.1955
     68  CA         4.6710   -5.4410   19.2070 C.3   251  CYS251      0.1843
     69  C          6.1020   -5.0770   18.8020 C.2   251  CYS251      0.2626
     70  O          6.3080   -4.3510   17.8220 O.2   251  CYS251     -0.2714
     71  CB         4.0220   -4.3210   20.0250 C.3   251  CYS251      0.0997
     72  SG         5.0420   -3.5590   21.2870 S.3   251  CYS251     -0.0797
     73  N          7.0900   -5.6030   19.5230 N.am  252  THR252     -0.1936
     74  CA         8.4830   -5.3210   19.1910 C.3   252  THR252      0.2028
     75  C          9.0810   -6.3040   18.1810 C.2   252  THR252      0.2642
     76  O         10.1330   -6.0460   17.5900 O.2   252  THR252     -0.2714
     77  CB         9.3780   -5.3020   20.4510 C.3   252  THR252      0.1808
     78  OG1        9.3990   -6.6010   21.0520 O.3   252  THR252     -0.2208
     79  CG2        8.8570   -4.2800   21.4510 C.3   252  THR252      0.0379
     80  N          8.4010   -7.4320   18.0130 N.am  253  ARG253     -0.1977
     81  CA         8.7860   -8.4590   17.0670 C.3   253  ARG253      0.1597
     82  C          7.5950   -8.8110   16.1740 C.2   253  ARG253      0.2287
     83  O          7.0680   -9.9270   16.2210 O.2   253  ARG253     -0.2864
     84  CB         9.2760   -9.7030   17.8160 C.3   253  ARG253      0.0334
     85  CG        10.3740   -9.3870   18.8150 C.3   253  ARG253      0.0492
     86  CD        11.6470  -10.1490   18.5140 C.3   253  ARG253      0.2205
     87  NE        11.8600  -11.2490   19.4500 N.pl3 253  ARG253     -0.0865
     88  CZ        12.0460  -11.0930   20.7580 C.cat 253  ARG253      0.5346
     89  NH1       12.0460   -9.8790   21.2920 N.pl3 253  ARG253      0.1354
     90  NH2       12.2410  -12.1520   21.5310 N.pl3 253  ARG253      0.1354
     91  N          3.2920  -13.6170   21.0990 N.3   258  ALA258     -0.1245
     92  CA         3.6880  -13.5030   22.4800 C.3   258  ALA258      0.1562
     93  C          2.6500  -14.2260   23.3260 C.2   258  ALA258      0.2260
     94  O          1.4770  -13.8380   23.3360 O.2   258  ALA258     -0.2867
     95  CB         3.7860  -12.0410   22.9030 C.3   258  ALA258      0.0290
     96  N          1.3350  -16.6020   30.3560 N.3   261  TYR261     -0.1241
     97  CA         0.7130  -17.6080   31.1930 C.3   261  TYR261      0.1605
     98  C          1.0590  -17.4920   32.6700 C.2   261  TYR261      0.2264
     99  O          2.0600  -16.8560   33.0430 O.2   261  TYR261     -0.2867
    100  CB         1.0700  -19.0240   30.7140 C.3   261  TYR261      0.0534
    101  CG         2.4610  -19.4900   31.0900 C.ar  261  TYR261     -0.0201
    102  CD1        3.5900  -19.0000   30.4350 C.ar  261  TYR261     -0.0009
    103  CD2        2.6420  -20.4270   32.1070 C.ar  261  TYR261     -0.0009
    104  CE1        4.8750  -19.4380   30.7860 C.ar  261  TYR261      0.0417
    105  CE2        3.9170  -20.8690   32.4640 C.ar  261  TYR261      0.0417
    106  CZ         5.0240  -20.3720   31.8000 C.ar  261  TYR261      0.1957
    107  OH         6.2770  -20.8190   32.1460 O.3   261  TYR261     -0.2866
    108  N          4.3910  -14.9200   33.1100 N.3   269  LEU269     -0.1231
    109  CA         5.4570  -14.8530   32.1430 C.3   269  LEU269      0.1693
    110  C          4.9800  -14.8260   30.7040 C.2   269  LEU269      0.2592
    111  O          3.9230  -15.3600   30.3770 O.2   269  LEU269     -0.2718
    112  CB         6.4120  -16.0380   32.3350 C.3   269  LEU269      0.0284
    113  CG         6.9460  -16.2570   33.7570 C.3   269  LEU269      0.0019
    114  CD1        7.7880  -17.5250   33.7970 C.3   269  LEU269      0.0001
    115  CD2        7.7610  -15.0540   34.2030 C.3   269  LEU269      0.0001
    116  N          5.7590  -14.1810   29.8500 N.am  270  GLN270     -0.1966
    117  CA         5.4320  -14.1170   28.4540 C.3   270  GLN270      0.1733
    118  C          6.6000  -14.5650   27.5960 C.2   270  GLN270      0.2617
    119  O          7.7490  -14.2200   27.8680 O.2   270  GLN270     -0.2715
    120  CB         4.9790  -12.6990   28.0890 C.3   270  GLN270      0.0408
    121  CG         3.7290  -12.2820   28.8550 C.3   270  GLN270      0.0908
    122  CD         3.2380  -10.8910   28.5090 C.2   270  GLN270      0.2608
    123  OE1        3.0950  -10.0320   29.3910 O.2   270  GLN270     -0.2717
    124  NE2        2.9690  -10.6590   27.2350 N.am  270  GLN270     -0.0878
    125  N          6.3050  -15.3690   26.5840 N.am  271  THR271     -0.1937
    126  CA         7.3360  -15.8770   25.7150 C.3   271  THR271      0.2028
    127  C          6.9860  -15.7850   24.2420 C.2   271  THR271      0.2642
    128  O          5.8180  -15.8550   23.8710 O.2   271  THR271     -0.2714
    129  CB         7.6390  -17.3550   26.0300 C.3   271  THR271      0.1808
    130  OG1        6.5320  -18.1700   25.6300 O.3   271  THR271     -0.2208
    131  CG2        7.8520  -17.5450   27.5120 C.3   271  THR271      0.0379
    132  N          8.0110  -15.6070   23.4170 N.am  272  ILE272     -0.1977
    133  CA         7.8490  -15.5600   21.9820 C.3   272  ILE272      0.1596
    134  C          8.4400  -16.8360   21.3710 C.2   272  ILE272      0.2287
    135  O          9.6580  -17.0100   21.3530 O.2   272  ILE272     -0.2864
    136  CB         8.5510  -14.3140   21.3940 C.3   272  ILE272      0.0276
    137  CG1        7.9270  -13.0460   21.9920 C.3   272  ILE272      0.0022
    138  CG2        8.4300  -14.3060   19.8710 C.3   272  ILE272      0.0022
    139  CD1        8.5880  -11.7530   21.5540 C.3   272  ILE272      0.0001
    140  N         10.1410  -19.9730   19.6820 N.3   274  HIS274     -0.1241
    141  CA        11.3960  -20.0740   18.9650 C.3   274  HIS274      0.1621
    142  C         11.4000  -21.1540   17.8800 C.2   274  HIS274      0.2264
    143  O         11.3510  -22.3520   18.1790 O.2   274  HIS274     -0.2867
    144  CB        12.5370  -20.3330   19.9550 C.3   274  HIS274      0.0745
    145  CG        13.8890  -20.4130   19.3160 C.ar  274  HIS274      0.0817
    146  ND1       14.2440  -21.4230   18.4470 N.ar  274  HIS274     -0.2268
    147  CD2       14.9730  -19.6090   19.4220 C.ar  274  HIS274      0.1154
    148  CE1       15.4890  -21.2370   18.0450 C.ar  274  HIS274      0.1986
    149  NE2       15.9540  -20.1440   18.6220 N.ar  274  HIS274     -0.2212
    150  N          1.6810  -25.5420   30.7650 N.3   290  PHE290     -0.1241
    151  CA         1.7250  -24.0820   30.7850 C.3   290  PHE290      0.1605
    152  C          0.5140  -23.4150   30.1470 C.2   290  PHE290      0.2264
    153  O          0.0340  -22.3910   30.6340 O.2   290  PHE290     -0.2867
    154  CB         2.9830  -23.5590   30.0900 C.3   290  PHE290      0.0534
    155  CG         4.2580  -24.1310   30.6250 C.ar  290  PHE290     -0.0203
    156  CD1        4.4730  -24.2340   31.9950 C.ar  290  PHE290     -0.0042
    157  CD2        5.2530  -24.5590   29.7550 C.ar  290  PHE290     -0.0042
    158  CE1        5.6660  -24.7570   32.4910 C.ar  290  PHE290     -0.0003
    159  CE2        6.4480  -25.0830   30.2410 C.ar  290  PHE290     -0.0003
    160  CZ         6.6540  -25.1820   31.6100 C.ar  290  PHE290     -0.0000
@<TRIPOS>BOND
     1    82    83    2
     2    82    81    1
     3    81    84    1
     4    81    80    1
     5    76    75    2
     6    84    85    1
     7    70    69    2
     8   142   143    2
     9   142   141    1
    10    64    63    2
    11    80    75   am
    12   148   146   ar
    13   148   149   ar
    14    75    74    1
    15   146   145   ar
    16    86    85    1
    17    86    87    1
    18   149   147   ar
    19    69    68    1
    20    69    73   am
    21   141   140    1
    22   141   144    1
    23    63    62    1
    24    63    67   am
    25    74    73    1
    26    74    77    1
    27    61    62    1
    28    68    67    1
    29    68    71    1
    30   145   147   ar
    31   145   144    1
    32    87    88    2
    33    25    24    2
    34    65    66    1
    35    65    62    1
    36   138   136    1
    37    71    72    1
    38    52    53    2
    39    52    51    1
    40    77    78    1
    41    77    79    1
    42    24    23    1
    43    88    89    1
    44    88    90    1
    45    91    92    1
    46    51    50    1
    47    51    54    1
    48   135   134    2
    49   134   133    1
    50   136   133    1
    51   136   137    1
    52   139   137    1
    53    23    26    1
    54    23    22    1
    55   133   132    1
    56    54    55    1
    57    26    27    1
    58    92    95    1
    59    92    93    1
    60    55    56    1
    61    59    58    1
    62    93    94    2
    63   132   127   am
    64    27    28   ar
    65    27    29   ar
    66    19    16    1
    67    19    20    1
    68    56    57    1
    69   128   127    2
    70    58    57    2
    71    58    60    1
    72   127   126    1
    73    16    17    1
    74    16    15    1
    75    20    21    1
    76    17    18    2
    77   130   129    1
    78   126   129    1
    79   126   125    1
    80    15    21    1
    81    15    11   am
    82   129   131    1
    83    30    31    1
    84    12    11    2
    85   125   118   am
    86    11    10    1
    87    34    31    1
    88    34    35    1
    89    31    32    1
    90   124   122   am
    91   118   119    2
    92   118   117    1
    93    37    35   ar
    94    37    39   ar
    95     8     6   am
    96    35    36   ar
    97    10     9    1
    98    10    13    1
    99   120   117    1
   100   120   121    1
   101   117   116    1
   102    14    13    1
   103   122   121    1
   104   122   123    2
   105    39    40   ar
   106    32    42   am
   107    32    33    2
   108     9     3   am
   109     6     7    2
   110     6     5    1
   111    42    43    1
   112     3     4    2
   113     3     2    1
   114    36    38   ar
   115     2     5    1
   116     2     1    1
   117   157   159   ar
   118   157   155   ar
   119   116   110   am
   120    40    38   ar
   121    40    41    1
   122   154   155    1
   123   154   151    1
   124   152   153    2
   125   152   151    1
   126    43    44    1
   127    43    46    1
   128   159   160   ar
   129    49    47   ar
   130    96    97    1
   131   111   110    2
   132    44    45    2
   133   102   104   ar
   134   102   101   ar
   135    46    47    1
   136   155   156   ar
   137    47    48   ar
   138   110   109    1
   139   100   101    1
   140   100    97    1
   141   150   151    1
   142   104   106   ar
   143   101   103   ar
   144    97    98    1
   145   160   158   ar
   146   106   107    1
   147   106   105   ar
   148   156   158   ar
   149   103   105   ar
   150   109   112    1
   151   109   108    1
   152   112   113    1
   153    98    99    2
   154   113   114    1
   155   113   115    1
