@<TRIPOS>MOLECULE
tmp/3buxB00.pdb
 213 208 0 0 0
SMALL
GASTEIGER

@<TRIPOS>ATOM
      1  N         -6.2810   -7.9770   28.4570 N.3    34  SER34      -0.1203
      2  CA        -6.2600   -6.6000   28.0210 C.3    34  SER34       0.2005
      3  C         -5.6630   -6.4430   26.6160 C.2    34  SER34       0.2460
      4  O         -4.5480   -6.9050   26.3550 O.2    34  SER34      -0.2732
      5  CB        -5.4460   -5.7750   29.0270 C.3    34  SER34       0.2103
      6  OG        -5.2670   -4.4390   28.5960 O.3    34  SER34      -0.2182
      7  N         -6.4020   -5.8090   25.6940 N.am   35  PRO35      -0.2728
      8  CA        -5.8550   -5.6420   24.3430 C.3    35  PRO35       0.1401
      9  C         -4.5050   -4.9140   24.3760 C.2    35  PRO35       0.2269
     10  O         -4.3400   -3.9220   25.0900 O.2    35  PRO35      -0.2865
     11  CB        -6.9280   -4.8230   23.6350 C.3    35  PRO35       0.0296
     12  CG        -8.1930   -5.2740   24.3150 C.3    35  PRO35       0.0237
     13  CD        -7.7830   -5.3010   25.7690 C.3    35  PRO35       0.0939
     14  N          1.4040   -0.2780   24.5870 N.3   227  THR227     -0.1203
     15  CA         0.0490   -0.6730   24.9060 C.3   227  THR227      0.1994
     16  C         -0.6000    0.1570   26.0050 C.2   227  THR227      0.2618
     17  O          0.0660    0.9290   26.7130 O.2   227  THR227     -0.2717
     18  CB        -0.0130   -2.1370   25.3840 C.3   227  THR227      0.1784
     19  OG1        0.5840   -2.2410   26.6840 O.3   227  THR227     -0.2211
     20  CG2        0.7250   -3.0360   24.4240 C.3   227  THR227      0.0376
     21  N         -1.9080   -0.0190   26.1420 N.am  228  TYR228     -0.1961
     22  CA        -2.6670    0.6490   27.1670 C.3   228  TYR228      0.1771
     23  C         -2.0750    0.4140   28.5640 C.2   228  TYR228      0.2619
     24  O         -1.8970    1.3570   29.3430 O.2   228  TYR228     -0.2715
     25  CB        -4.1170    0.1540   27.1060 C.3   228  TYR228      0.0574
     26  CG        -5.0450    0.7300   28.1510 C.ar  228  TYR228     -0.0198
     27  CD1       -5.0460    0.2410   29.4560 C.ar  228  TYR228     -0.0009
     28  CD2       -5.9400    1.7490   27.8260 C.ar  228  TYR228     -0.0009
     29  CE1       -5.9240    0.7530   30.4180 C.ar  228  TYR228      0.0417
     30  CE2       -6.8170    2.2630   28.7740 C.ar  228  TYR228      0.0417
     31  CZ        -6.8040    1.7600   30.0630 C.ar  228  TYR228      0.1957
     32  OH        -7.6880    2.2660   30.9890 O.3   228  TYR228     -0.2866
     33  N         -1.7620   -0.8410   28.8760 N.am  229  ASP229     -0.1971
     34  CA        -1.1850   -1.1500   30.1690 C.3   229  ASP229      0.1709
     35  C          0.2080   -0.5530   30.3620 C.2   229  ASP229      0.2293
     36  O          0.5480   -0.0910   31.4570 O.2   229  ASP229     -0.2864
     37  CB        -1.1470   -2.6630   30.3940 C.3   229  ASP229      0.1436
     38  CG        -2.5320   -3.2530   30.5730 C.2   229  ASP229      0.3671
     39  OD1       -3.3550   -2.6150   31.2640 O.co2 229  ASP229     -0.2456
     40  OD2       -2.7940   -4.3490   30.0360 O.co2 229  ASP229     -0.2456
     41  N          0.2030    7.2690   21.8900 N.3   248  ARG248     -0.1245
     42  CA         0.4970    6.1010   21.0980 C.3   248  ARG248      0.1563
     43  C         -0.6740    5.7210   20.2190 C.2   248  ARG248      0.2260
     44  O         -1.7770    6.2580   20.3720 O.2   248  ARG248     -0.2867
     45  CB         0.7310    4.9260   22.0420 C.3   248  ARG248      0.0307
     46  CG        -0.5710    4.6100   22.8060 C.3   248  ARG248      0.0489
     47  CD        -0.5020    3.4550   23.7860 C.3   248  ARG248      0.2205
     48  NE        -1.7420    3.3590   24.5590 N.pl3 248  ARG248     -0.0865
     49  CZ        -2.8500    2.7300   24.1660 C.cat 248  ARG248      0.5346
     50  NH1       -2.9120    2.1100   22.9940 N.pl3 248  ARG248      0.1354
     51  NH2       -3.9160    2.7310   24.9550 N.pl3 248  ARG248      0.1354
     52  N         -3.7720    3.7360   19.1860 N.3   250  SER250     -0.1202
     53  CA        -4.7580    2.9030   19.8310 C.3   250  SER250      0.2020
     54  C         -4.7190    1.5380   19.1470 C.2   250  SER250      0.2619
     55  O         -4.6210    1.4850   17.9130 O.2   250  SER250     -0.2717
     56  CB        -6.1560    3.5060   19.6600 C.3   250  SER250      0.2103
     57  OG        -7.1660    2.5160   19.8240 O.3   250  SER250     -0.2182
     58  N         -4.7640    0.4420   19.8950 N.am  251  CYS251     -0.1955
     59  CA        -4.7400   -0.8380   19.2170 C.3   251  CYS251      0.1843
     60  C         -6.1220   -1.3640   18.8060 C.2   251  CYS251      0.2626
     61  O         -6.2250   -2.1190   17.8410 O.2   251  CYS251     -0.2714
     62  CB        -3.9760   -1.8890   20.0350 C.3   251  CYS251      0.0997
     63  SG        -4.8530   -2.7060   21.3710 S.3   251  CYS251     -0.0797
     64  N         -7.1750   -0.9510   19.5100 N.am  252  THR252     -0.1936
     65  CA        -8.5330   -1.3920   19.1680 C.3   252  THR252      0.2028
     66  C         -9.2390   -0.4700   18.1720 C.2   252  THR252      0.2642
     67  O        -10.2870   -0.8140   17.6050 O.2   252  THR252     -0.2714
     68  CB        -9.4240   -1.5290   20.4200 C.3   252  THR252      0.1808
     69  OG1       -9.5840   -0.2500   21.0410 O.3   252  THR252     -0.2208
     70  CG2       -8.8070   -2.5060   21.4070 C.3   252  THR252      0.0379
     71  N         -8.6660    0.7110   17.9850 N.am  253  ARG253     -0.1977
     72  CA        -9.1680    1.6870   17.0470 C.3   253  ARG253      0.1597
     73  C         -8.0360    2.1650   16.1380 C.2   253  ARG253      0.2287
     74  O         -7.6330    3.3320   16.1710 O.2   253  ARG253     -0.2864
     75  CB        -9.7750    2.8680   17.8000 C.3   253  ARG253      0.0334
     76  CG       -10.8590    2.4470   18.7730 C.3   253  ARG253      0.0492
     77  CD       -12.2050    3.0090   18.3800 C.3   253  ARG253      0.2205
     78  NE       -12.5540    4.1790   19.1780 N.pl3 253  ARG253     -0.0865
     79  CZ       -12.7450    4.1500   20.4930 C.cat 253  ARG253      0.5346
     80  NH1      -12.6180    3.0090   21.1570 N.pl3 253  ARG253      0.1354
     81  NH2      -13.0690    5.2590   21.1430 N.pl3 253  ARG253      0.1354
     82  N         -4.3100    7.3800   21.0790 N.3   258  ALA258     -0.1245
     83  CA        -4.6700    7.2370   22.4760 C.3   258  ALA258      0.1562
     84  C         -3.6830    8.0850   23.2730 C.2   258  ALA258      0.2260
     85  O         -2.4760    7.8020   23.2750 O.2   258  ALA258     -0.2867
     86  CB        -4.5900    5.7930   22.9270 C.3   258  ALA258      0.0290
     87  N         -2.5640   10.8140   30.1560 N.3   261  TYR261     -0.1241
     88  CA        -2.0510   11.8880   30.9830 C.3   261  TYR261      0.1605
     89  C         -2.3970   11.7420   32.4540 C.2   261  TYR261      0.2264
     90  O         -3.3140   11.0020   32.8190 O.2   261  TYR261     -0.2867
     91  CB        -2.5350   13.2570   30.4760 C.3   261  TYR261      0.0534
     92  CG        -3.9660   13.6140   30.8380 C.ar  261  TYR261     -0.0201
     93  CD1       -5.0430   13.0320   30.1700 C.ar  261  TYR261     -0.0009
     94  CD2       -4.2380   14.5440   31.8470 C.ar  261  TYR261     -0.0009
     95  CE1       -6.3540   13.3670   30.4970 C.ar  261  TYR261      0.0417
     96  CE2       -5.5410   14.8820   32.1820 C.ar  261  TYR261      0.0417
     97  CZ        -6.5940   14.2910   31.5040 C.ar  261  TYR261      0.1957
     98  OH        -7.8900   14.6220   31.8460 O.3   261  TYR261     -0.2866
     99  N         -4.5830    8.1930   35.9550 N.3   268  ILE268     -0.1231
    100  CA        -4.0170    8.0990   34.6390 C.3   268  ILE268      0.1692
    101  C         -5.1090    7.7960   33.6270 C.2   268  ILE268      0.2592
    102  O         -5.6200    6.6660   33.5600 O.2   268  ILE268     -0.2718
    103  CB        -2.9410    6.9970   34.5560 C.3   268  ILE268      0.0266
    104  CG1       -1.7660    7.3470   35.4680 C.3   268  ILE268      0.0019
    105  CG2       -2.4610    6.8430   33.1130 C.3   268  ILE268      0.0020
    106  CD1       -1.0900    8.6260   35.1080 C.3   268  ILE268      0.0001
    107  N         -5.4930    8.8140   32.8710 N.am  269  LEU269     -0.1966
    108  CA        -6.5260    8.6520   31.8800 C.3   269  LEU269      0.1728
    109  C         -6.0130    8.6160   30.4630 C.2   269  LEU269      0.2616
    110  O         -5.1120    9.3730   30.0910 O.2   269  LEU269     -0.2715
    111  CB        -7.5490    9.7840   31.9760 C.3   269  LEU269      0.0311
    112  CG        -8.2150   10.0480   33.3240 C.3   269  LEU269      0.0022
    113  CD1       -9.1720   11.2230   33.1900 C.3   269  LEU269      0.0001
    114  CD2       -8.9430    8.7970   33.7910 C.3   269  LEU269      0.0001
    115  N         -6.5840    7.7150   29.6790 N.am  270  GLN270     -0.1963
    116  CA        -6.2480    7.6090   28.2870 C.3   270  GLN270      0.1733
    117  C         -7.4890    7.8550   27.4410 C.2   270  GLN270      0.2617
    118  O         -8.5240    7.1800   27.6120 O.2   270  GLN270     -0.2715
    119  CB        -5.6450    6.2340   27.9780 C.3   270  GLN270      0.0408
    120  CG        -4.3220    5.9870   28.6970 C.3   270  GLN270      0.0908
    121  CD        -3.7640    4.5950   28.4610 C.2   270  GLN270      0.2608
    122  OE1       -3.6920    3.7690   29.3850 O.2   270  GLN270     -0.2717
    123  NE2       -3.3640    4.3210   27.2250 N.am  270  GLN270     -0.0878
    124  N         -7.4140    8.8470   26.5690 N.am  271  THR271     -0.1937
    125  CA        -8.5300    9.1660   25.7280 C.3   271  THR271      0.2028
    126  C         -8.1700    9.2500   24.2550 C.2   271  THR271      0.2642
    127  O         -6.9980    9.3810   23.8840 O.2   271  THR271     -0.2714
    128  CB        -9.1920   10.4950   26.1590 C.3   271  THR271      0.1808
    129  OG1       -8.3670   11.5980   25.7700 O.3   271  THR271     -0.2208
    130  CG2       -9.3780   10.5290   27.6720 C.3   271  THR271      0.0379
    131  N         -9.1940    9.1610   23.4230 N.am  272  ILE272     -0.1963
    132  CA        -9.0450    9.2270   21.9920 C.3   272  ILE272      0.1712
    133  C         -9.7150   10.4840   21.4310 C.2   272  ILE272      0.2458
    134  O        -10.9220   10.6820   21.6020 O.2   272  ILE272     -0.2730
    135  CB        -9.6440    7.9530   21.3470 C.3   272  ILE272      0.0289
    136  CG1       -8.8460    6.7300   21.8200 C.3   272  ILE272      0.0022
    137  CG2       -9.6280    8.0580   19.8240 C.3   272  ILE272      0.0023
    138  CD1       -9.4130    5.4010   21.3720 C.3   272  ILE272      0.0001
    139  N         -8.9350   11.3640   20.7860 N.am  273  PRO273     -0.2716
    140  CA        -9.4670   12.6020   20.2140 C.3   273  PRO273      0.1536
    141  C        -10.7580   12.3970   19.4260 C.2   273  PRO273      0.2598
    142  O        -10.9080   11.4170   18.6900 O.2   273  PRO273     -0.2715
    143  CB        -8.3250   13.0890   19.3290 C.3   273  PRO273      0.0310
    144  CG        -7.1220   12.6460   20.0850 C.3   273  PRO273      0.0237
    145  CD        -7.4880   11.2500   20.5290 C.3   273  PRO273      0.0939
    146  N        -11.6920   13.3230   19.6030 N.am  274  HIS274     -0.1974
    147  CA       -12.9460   13.2640   18.9000 C.3   274  HIS274      0.1656
    148  C        -13.0030   14.2770   17.7610 C.2   274  HIS274      0.2291
    149  O        -12.9670   15.4890   17.9920 O.2   274  HIS274     -0.2864
    150  CB       -14.1070   13.4970   19.8740 C.3   274  HIS274      0.0771
    151  CG       -15.4600   13.3760   19.2440 C.ar  274  HIS274      0.0820
    152  ND1      -16.0070   14.3670   18.4590 N.ar  274  HIS274     -0.2267
    153  CD2      -16.3650   12.3700   19.2660 C.ar  274  HIS274      0.1154
    154  CE1      -17.1920   13.9770   18.0230 C.ar  274  HIS274      0.1986
    155  NE2      -17.4330   12.7680   18.4980 N.ar  274  HIS274     -0.2212
    156  N        -10.7960   15.3400   15.5250 N.3   276  LYS276     -0.1245
    157  CA        -9.7170   16.3030   15.4980 C.3   276  LYS276      0.1561
    158  C         -8.3290   15.6850   15.3110 C.2   276  LYS276      0.2260
    159  O         -8.0130   14.6490   15.9070 O.2   276  LYS276     -0.2867
    160  CB        -9.7480   17.1570   16.7710 C.3   276  LYS276      0.0271
    161  CG        -9.6060   16.3780   18.0680 C.3   276  LYS276      0.0035
    162  CD       -10.0590   17.2090   19.2650 C.3   276  LYS276      0.0206
    163  CE        -9.3240   18.5400   19.3530 C.3   276  LYS276      0.1093
    164  NZ        -9.8140   19.3630   20.4960 N.3   276  LYS276     -0.1314
    165  N         -5.4740   18.3790   18.9720 N.3   281  ALA281     -0.1245
    166  CA        -5.6920   17.7240   20.2420 C.3   281  ALA281      0.1562
    167  C         -4.6080   18.0730   21.2600 C.2   281  ALA281      0.2260
    168  O         -4.8980   18.3640   22.4220 O.2   281  ALA281     -0.2867
    169  CB        -5.7560   16.2160   20.0480 C.3   281  ALA281      0.0290
    170  N         -4.7610   21.9550   22.1990 N.3   284  ASP284     -0.1225
    171  CA        -5.8520   22.2120   23.1240 C.3   284  ASP284      0.1805
    172  C         -5.5760   21.6340   24.5120 C.2   284  ASP284      0.2598
    173  O         -5.8380   22.2790   25.5300 O.2   284  ASP284     -0.2718
    174  CB        -7.1710   21.6330   22.5950 C.3   284  ASP284      0.1424
    175  CG        -7.6490   22.3220   21.3310 C.2   284  ASP284      0.3668
    176  OD1       -7.2290   23.4740   21.0890 O.co2 284  ASP284     -0.2456
    177  OD2       -8.4560   21.7180   20.5920 O.co2 284  ASP284     -0.2456
    178  N         -5.0390   20.4170   24.5380 N.am  285  GLY285     -0.1957
    179  CA        -4.7250   19.7700   25.8000 C.3   285  GLY285      0.1869
    180  C         -3.6380   20.5340   26.5320 C.2   285  GLY285      0.2309
    181  O         -3.6160   20.5870   27.7680 O.2   285  GLY285     -0.2863
    182  N         -5.2220   23.6130   28.0910 N.3   288  GLU288     -0.1245
    183  CA        -6.0490   23.1860   29.2030 C.3   288  GLU288      0.1567
    184  C         -5.2470   22.7340   30.4260 C.2   288  GLU288      0.2260
    185  O         -5.7490   22.7500   31.5560 O.2   288  GLU288     -0.2867
    186  CB        -6.9770   22.0560   28.7560 C.3   288  GLU288      0.0388
    187  CG        -8.1070   22.5120   27.8480 C.3   288  GLU288      0.1160
    188  CD        -8.8550   21.3510   27.2230 C.2   288  GLU288      0.3649
    189  OE1       -8.4630   20.9230   26.1180 O.co2 288  GLU288     -0.2457
    190  OE2       -9.8280   20.8660   27.8370 O.co2 288  GLU288     -0.2457
    191  N         -3.6550   19.6570   30.4730 N.3   290  PHE290     -0.1227
    192  CA        -3.5800   18.2030   30.4970 C.3   290  PHE290      0.1736
    193  C         -2.2990   17.6340   29.8880 C.2   290  PHE290      0.2595
    194  O         -1.7550   16.6360   30.3720 O.2   290  PHE290     -0.2718
    195  CB        -4.7740   17.5850   29.7630 C.3   290  PHE290      0.0547
    196  CG        -6.1100   18.0650   30.2540 C.ar  290  PHE290     -0.0202
    197  CD1       -6.3510   18.2400   31.6140 C.ar  290  PHE290     -0.0042
    198  CD2       -7.1350   18.3200   29.3530 C.ar  290  PHE290     -0.0042
    199  CE1       -7.6020   18.6650   32.0680 C.ar  290  PHE290     -0.0003
    200  CE2       -8.3860   18.7430   29.7940 C.ar  290  PHE290     -0.0003
    201  CZ        -8.6190   18.9160   31.1530 C.ar  290  PHE290     -0.0000
    202  N         -1.8300   18.2730   28.8220 N.am  291  TYR291     -0.1976
    203  CA        -0.6360   17.8210   28.1310 C.3   291  TYR291      0.1639
    204  C          0.5030   18.8370   28.2140 C.2   291  TYR291      0.2290
    205  O          0.7630   19.5830   27.2670 O.2   291  TYR291     -0.2864
    206  CB        -0.9690   17.5270   26.6610 C.3   291  TYR291      0.0560
    207  CG        -2.2390   16.7260   26.4470 C.ar  291  TYR291     -0.0198
    208  CD1       -2.6320   15.7390   27.3480 C.ar  291  TYR291     -0.0009
    209  CD2       -3.0330   16.9370   25.3190 C.ar  291  TYR291     -0.0009
    210  CE1       -3.7840   14.9820   27.1310 C.ar  291  TYR291      0.0417
    211  CE2       -4.1830   16.1850   25.0910 C.ar  291  TYR291      0.0417
    212  CZ        -4.5530   15.2070   26.0010 C.ar  291  TYR291      0.1957
    213  OH        -5.6810   14.4500   25.7780 O.3   291  TYR291     -0.2866
@<TRIPOS>BOND
     1   158   157    1
     2   158   159    2
     3   157   156    1
     4   157   160    1
     5    73    74    2
     6    73    72    1
     7   160   161    1
     8    72    75    1
     9    72    71    1
    10    67    66    2
    11   148   149    2
    12   148   147    1
    13    75    76    1
    14    61    60    2
    15    55    54    2
    16    71    66   am
    17   154   152   ar
    18   154   155   ar
    19   161   162    1
    20    66    65    1
    21    77    76    1
    22    77    78    1
    23   152   151   ar
    24   155   153   ar
    25   142   141    2
    26    60    59    1
    27    60    64   am
    28   147   146    1
    29   147   150    1
    30   165   166    1
    31    54    53    1
    32    54    58   am
    33    65    64    1
    34    65    68    1
    35    78    79    2
    36    52    53    1
    37    59    58    1
    38    59    62    1
    39   151   153   ar
    40   151   150    1
    41   162   163    1
    42   143   144    1
    43   143   140    1
    44   163   164    1
    45   141   146   am
    46   141   140    1
    47    56    57    1
    48    56    53    1
    49   137   135    1
    50    62    63    1
    51   169   166    1
    52   144   145    1
    53   140   139    1
    54    43    44    2
    55    43    42    1
    56   166   167    1
    57    68    69    1
    58    68    70    1
    59    79    81    1
    60    79    80    1
    61   145   139    1
    62   177   175   ar
    63   139   133   am
    64    82    83    1
    65   176   175   ar
    66    42    41    1
    67    42    45    1
    68   167   168    2
    69   175   174    1
    70   135   136    1
    71   135   132    1
    72   138   136    1
    73   133   134    2
    74   133   132    1
    75   132   131    1
    76    45    46    1
    77   170   171    1
    78    83    86    1
    79    83    84    1
    80   174   171    1
    81    46    47    1
    82    50    49    1
    83   171   172    1
    84    84    85    2
    85   131   126   am
    86    11    12    1
    87    11     8    1
    88    47    48    1
    89   127   126    2
    90    49    48    2
    91    49    51    1
    92   126   125    1
    93    12    13    1
    94     8     9    1
    95     8     7    1
    96     9    10    2
    97    20    18    1
    98   172   178   am
    99   172   173    2
   100   178   179    1
   101    14    15    1
   102    15    18    1
   103    15    16    1
   104   211   209   ar
   105   211   212   ar
   106   209   207   ar
   107    18    19    1
   108     7    13    1
   109     7     3   am
   110   125   128    1
   111   125   124    1
   112   129   128    1
   113   213   212    1
   114   179   180    1
   115   212   210   ar
   116    16    21   am
   117    16    17    2
   118   189   188   ar
   119    21    22    1
   120   128   130    1
   121     4     3    2
   122   207   206    1
   123   207   208   ar
   124   180   181    2
   125   124   117   am
   126     3     2    1
   127   206   203    1
   128    25    22    1
   129    25    26    1
   130   210   208   ar
   131    22    23    1
   132   188   190   ar
   133   188   187    1
   134   123   121   am
   135   205   204    2
   136   117   118    2
   137   117   116    1
   138    28    26   ar
   139    28    30   ar
   140   187   186    1
   141   119   116    1
   142   119   120    1
   143     2     1    1
   144     2     5    1
   145   182   183    1
   146   203   204    1
   147   203   202    1
   148    26    27   ar
   149   116   115    1
   150   121   120    1
   151   121   122    2
   152    23    33   am
   153    23    24    2
   154     6     5    1
   155   186   183    1
   156    30    31   ar
   157   202   193   am
   158    33    34    1
   159   183   184    1
   160   198   200   ar
   161   198   196   ar
   162    27    29   ar
   163   115   109   am
   164   195   196    1
   165   195   192    1
   166   200   201   ar
   167   193   194    2
   168   193   192    1
   169    40    38   ar
   170    31    29   ar
   171    31    32    1
   172   110   109    2
   173    87    88    1
   174    34    35    1
   175    34    37    1
   176    93    95   ar
   177    93    92   ar
   178   196   197   ar
   179    35    36    2
   180    37    38    1
   181   184   185    2
   182   109   108    1
   183   191   192    1
   184    91    92    1
   185    91    88    1
   186    95    97   ar
   187    38    39   ar
   188    92    94   ar
   189    88    89    1
   190   201   199   ar
   191    97    98    1
   192    97    96   ar
   193   197   199   ar
   194    94    96   ar
   195   108   111    1
   196   108   107    1
   197   111   112    1
   198    89    90    2
   199   107   101   am
   200   105   103    1
   201   113   112    1
   202   112   114    1
   203   102   101    2
   204   101   100    1
   205   103   100    1
   206   103   104    1
   207   100    99    1
   208   106   104    1
