@<TRIPOS>MOLECULE
tmp/3buzA00.pdb
 251 245 0 0 0
SMALL
GASTEIGER

@<TRIPOS>ATOM
      1  N         27.9930   51.3410  -26.6900 N.3   246  TYR246     -0.1241
      2  CA        28.4170   50.9100  -28.0660 C.3   246  TYR246      0.1605
      3  C         29.5730   49.8980  -27.8770 C.2   246  TYR246      0.2264
      4  O         29.7140   48.8970  -28.6180 O.2   246  TYR246     -0.2867
      5  CB        28.8230   52.1690  -28.9050 C.3   246  TYR246      0.0534
      6  CG        29.2030   52.0600  -30.4130 C.ar  246  TYR246     -0.0201
      7  CD1       30.1900   51.1610  -30.8800 C.ar  246  TYR246     -0.0009
      8  CD2       28.6510   52.9500  -31.3540 C.ar  246  TYR246     -0.0009
      9  CE1       30.5700   51.1100  -32.2600 C.ar  246  TYR246      0.0417
     10  CE2       29.0150   52.8930  -32.7380 C.ar  246  TYR246      0.0417
     11  CZ        29.9740   51.9760  -33.1780 C.ar  246  TYR246      0.1957
     12  OH        30.3310   51.9350  -34.5180 O.3   246  TYR246     -0.2866
     13  N         29.9720   45.0580  -26.7170 N.3   249  GLY249     -0.1225
     14  CA        29.9090   44.0010  -27.7800 C.3   249  GLY249      0.1811
     15  C         28.9770   44.0820  -29.0060 C.2   249  GLY249      0.2280
     16  O         29.3050   43.5360  -30.0640 O.2   249  GLY249     -0.2866
     17  N         26.6310   46.5380  -31.5340 N.3   251  TYR251     -0.1227
     18  CA        26.5550   47.8610  -32.1430 C.3   251  TYR251      0.1736
     19  C         25.4230   47.8810  -33.1730 C.2   251  TYR251      0.2596
     20  O         24.9530   48.9460  -33.5590 O.2   251  TYR251     -0.2718
     21  CB        27.8750   48.1160  -32.8600 C.3   251  TYR251      0.0548
     22  CG        28.3670   46.8750  -33.5980 C.ar  251  TYR251     -0.0200
     23  CD1       29.4560   46.1370  -33.1360 C.ar  251  TYR251     -0.0009
     24  CD2       27.7090   46.4200  -34.7480 C.ar  251  TYR251     -0.0009
     25  CE1       29.8760   45.0020  -33.8060 C.ar  251  TYR251      0.0417
     26  CE2       28.1220   45.2970  -35.4240 C.ar  251  TYR251      0.0417
     27  CZ        29.2030   44.5840  -34.9560 C.ar  251  TYR251      0.1957
     28  OH        29.5890   43.4580  -35.6660 O.3   251  TYR251     -0.2866
     29  N         25.0080   46.6980  -33.6310 N.am  252  THR252     -0.1953
     30  CA        23.9130   46.5930  -34.6000 C.3   252  THR252      0.1897
     31  C         22.5410   46.8410  -33.9450 C.2   252  THR252      0.2313
     32  O         21.4870   46.5980  -34.5560 O.2   252  THR252     -0.2863
     33  CB        23.9400   45.2670  -35.4400 C.3   252  THR252      0.1794
     34  OG1       24.4940   44.2040  -34.6660 O.3   252  THR252     -0.2208
     35  CG2       24.7780   45.4410  -36.7250 C.3   252  THR252      0.0378
     36  N         23.6520   51.5020  -33.7760 N.3   255  ASN255     -0.1225
     37  CA        23.6190   52.0240  -35.1630 C.3   255  ASN255      0.1785
     38  C         22.2470   51.8550  -35.7820 C.2   255  ASN255      0.2597
     39  O         21.6520   52.8460  -36.2300 O.2   255  ASN255     -0.2718
     40  CB        24.6590   51.3750  -36.1040 C.3   255  ASN255      0.1169
     41  CG        26.0680   51.6560  -35.6940 C.2   255  ASN255      0.2627
     42  OD1       26.3610   52.6820  -35.0720 O.2   255  ASN255     -0.2716
     43  ND2       26.9520   50.7320  -36.0050 N.am  255  ASN255     -0.0877
     44  N         21.7410   50.6170  -35.7980 N.am  256  ASN256     -0.1974
     45  CA        20.4740   50.3250  -36.4660 C.3   256  ASN256      0.1688
     46  C         19.3210   51.2060  -35.9800 C.2   256  ASN256      0.2292
     47  O         18.3570   51.4270  -36.6950 O.2   256  ASN256     -0.2864
     48  CB        20.1610   48.8170  -36.4620 C.3   256  ASN256      0.1181
     49  CG        20.8230   48.0880  -37.6370 C.2   256  ASN256      0.2629
     50  OD1       21.8070   47.3510  -37.4790 O.2   256  ASN256     -0.2716
     51  ND2       20.2990   48.3300  -38.8320 N.am  256  ASN256     -0.0877
     52  N         20.3150   54.6520  -38.0580 N.3   259  ILE259     -0.1245
     53  CA        20.1320   54.4540  -39.5000 C.3   259  ILE259      0.1561
     54  C         18.7090   54.8440  -39.9400 C.2   259  ILE259      0.2260
     55  O         18.4680   55.9740  -40.3680 O.2   259  ILE259     -0.2867
     56  CB        20.4040   52.9530  -39.9120 C.3   259  ILE259      0.0252
     57  CG1       21.6340   52.3500  -39.2060 C.3   259  ILE259      0.0019
     58  CG2       20.4310   52.7650  -41.4510 C.3   259  ILE259      0.0019
     59  CD1       22.9670   52.9400  -39.5600 C.3   259  ILE259      0.0001
     60  N         41.0290   54.9250  -41.0130 N.3   294  TYR294     -0.1227
     61  CA        40.5850   54.0580  -42.0880 C.3   294  TYR294      0.1736
     62  C         39.3430   53.3670  -41.6680 C.2   294  TYR294      0.2595
     63  O         39.3350   52.8140  -40.6030 O.2   294  TYR294     -0.2718
     64  CB        41.6740   53.0710  -42.4860 C.3   294  TYR294      0.0548
     65  CG        42.9310   53.7270  -43.0330 C.ar  294  TYR294     -0.0200
     66  CD1       43.8930   54.1970  -42.1870 C.ar  294  TYR294     -0.0009
     67  CD2       43.1410   53.8190  -44.3910 C.ar  294  TYR294     -0.0009
     68  CE1       45.0060   54.7740  -42.6500 C.ar  294  TYR294      0.0417
     69  CE2       44.2750   54.3830  -44.8900 C.ar  294  TYR294      0.0417
     70  CZ        45.1980   54.8830  -44.0020 C.ar  294  TYR294      0.1957
     71  OH        46.3310   55.4920  -44.4570 O.3   294  TYR294     -0.2866
     72  N         38.2810   53.4590  -42.4880 N.am  295  ARG295     -0.1966
     73  CA        37.0460   52.6880  -42.2780 C.3   295  ARG295      0.1729
     74  C         36.7690   51.6740  -43.3460 C.2   295  ARG295      0.2616
     75  O         36.8030   51.9470  -44.5440 O.2   295  ARG295     -0.2715
     76  CB        35.8340   53.5620  -42.1830 C.3   295  ARG295      0.0348
     77  CG        34.6320   52.6550  -41.9750 C.3   295  ARG295      0.0492
     78  CD        33.3680   53.4200  -41.7770 C.3   295  ARG295      0.2205
     79  NE        32.2490   52.5020  -41.9320 N.pl3 295  ARG295     -0.0865
     80  CZ        31.7860   51.6900  -40.9710 C.cat 295  ARG295      0.5346
     81  NH1       32.3570   51.6800  -39.7450 N.pl3 295  ARG295      0.1354
     82  NH2       30.7420   50.8960  -41.2470 N.pl3 295  ARG295      0.1354
     83  N         36.4820   50.4720  -42.9540 N.am  296  ARG296     -0.1977
     84  CA        36.2520   49.5080  -44.0210 C.3   296  ARG296      0.1597
     85  C         34.7600   49.4830  -44.1280 C.2   296  ARG296      0.2287
     86  O         34.0360   49.2800  -43.1320 O.2   296  ARG296     -0.2864
     87  CB        36.8820   48.1280  -43.7080 C.3   296  ARG296      0.0334
     88  CG        38.3050   47.9280  -44.2780 C.3   296  ARG296      0.0492
     89  CD        38.3810   46.5550  -44.9480 C.3   296  ARG296      0.2205
     90  NE        39.6230   46.2270  -45.6730 N.pl3 296  ARG296     -0.0865
     91  CZ        40.7390   46.8400  -45.4130 C.cat 296  ARG296      0.5346
     92  NH1       40.6800   47.7490  -44.4710 N.pl3 296  ARG296      0.1354
     93  NH2       41.8520   46.5450  -46.0520 N.pl3 296  ARG296      0.1354
     94  N         30.7180   48.5970  -45.6460 N.3   298  GLY298     -0.1210
     95  CA        29.9600   47.5950  -46.4330 C.3   298  GLY298      0.1940
     96  C         28.9910   48.1920  -47.4140 C.2   298  GLY298      0.2454
     97  O         28.7100   49.3650  -47.3150 O.2   298  GLY298     -0.2732
     98  N         28.3890   47.3870  -48.2890 N.am  299  PRO299     -0.2717
     99  CA        27.5230   47.8870  -49.3830 C.3   299  PRO299      0.1535
    100  C         26.3730   48.8270  -48.9460 C.2   299  PRO299      0.2598
    101  O         26.1300   49.7950  -49.6300 O.2   299  PRO299     -0.2715
    102  CB        26.9260   46.6220  -50.0020 C.3   299  PRO299      0.0310
    103  CG        27.6940   45.4920  -49.4550 C.3   299  PRO299      0.0237
    104  CD        28.4080   45.9250  -48.2080 C.3   299  PRO299      0.0939
    105  N         25.6550   48.5440  -47.8500 N.am  300  GLN300     -0.1964
    106  CA        24.6210   49.4750  -47.3880 C.3   300  GLN300      0.1733
    107  C         25.1400   50.9180  -47.4390 C.2   300  GLN300      0.2616
    108  O         24.6010   51.7400  -48.1960 O.2   300  GLN300     -0.2715
    109  CB        24.1580   49.1720  -45.9600 C.3   300  GLN300      0.0408
    110  CG        22.9860   48.2970  -45.8500 C.3   300  GLN300      0.0908
    111  CD        23.2790   46.9180  -46.3660 C.2   300  GLN300      0.2608
    112  OE1       22.6510   46.4310  -47.3310 O.2   300  GLN300     -0.2717
    113  NE2       24.2650   46.2690  -45.7400 N.am  300  GLN300     -0.0878
    114  N         26.1800   51.2400  -46.6670 N.am  301  GLU301     -0.1977
    115  CA        26.6240   52.6370  -46.5910 C.3   301  GLU301      0.1602
    116  C         26.6990   53.3220  -47.9720 C.2   301  GLU301      0.2287
    117  O         26.8010   54.5150  -48.0640 O.2   301  GLU301     -0.2864
    118  CB        27.9650   52.7690  -45.8660 C.3   301  GLU301      0.0415
    119  CG        27.9930   52.3210  -44.3980 C.3   301  GLU301      0.1163
    120  CD        29.3700   51.8050  -43.9970 C.2   301  GLU301      0.3649
    121  OE1       30.2320   52.6810  -43.7270 O.co2 301  GLU301     -0.2457
    122  OE2       29.5660   50.5370  -43.9930 O.co2 301  GLU301     -0.2457
    123  N         26.4670   61.8760  -45.5270 N.3   332  THR332     -0.1203
    124  CA        26.2050   62.0190  -44.0800 C.3   332  THR332      0.1994
    125  C         25.8990   60.6520  -43.4070 C.2   332  THR332      0.2618
    126  O         25.1990   59.7730  -43.9870 O.2   332  THR332     -0.2717
    127  CB        25.0290   63.0170  -43.7870 C.3   332  THR332      0.1784
    128  OG1       25.2470   64.2530  -44.4730 O.3   332  THR332     -0.2211
    129  CG2       24.9260   63.3190  -42.2940 C.3   332  THR332      0.0376
    130  N         26.4390   60.4850  -42.1950 N.am  333  TYR333     -0.1962
    131  CA        26.3430   59.2270  -41.4670 C.3   333  TYR333      0.1756
    132  C         25.4260   59.4060  -40.2410 C.2   333  TYR333      0.2461
    133  O         25.7290   60.1710  -39.3040 O.2   333  TYR333     -0.2730
    134  CB        27.7550   58.7030  -41.0910 C.3   333  TYR333      0.0574
    135  CG        28.3970   57.7210  -42.0980 C.ar  333  TYR333     -0.0198
    136  CD1       28.3470   56.3540  -41.8930 C.ar  333  TYR333     -0.0009
    137  CD2       29.0620   58.1740  -43.2510 C.ar  333  TYR333     -0.0009
    138  CE1       28.9210   55.4750  -42.7890 C.ar  333  TYR333      0.0417
    139  CE2       29.6350   57.2870  -44.1520 C.ar  333  TYR333      0.0417
    140  CZ        29.5590   55.9440  -43.9080 C.ar  333  TYR333      0.1957
    141  OH        30.1070   55.0410  -44.7920 O.3   333  TYR333     -0.2866
    142  N         24.2720   58.7310  -40.2500 N.am  334  PRO334     -0.2716
    143  CA        23.5360   58.8770  -39.0040 C.3   334  PRO334      0.1536
    144  C         24.2670   58.1860  -37.8370 C.2   334  PRO334      0.2599
    145  O         24.2620   58.7440  -36.7330 O.2   334  PRO334     -0.2715
    146  CB        22.1750   58.2430  -39.3090 C.3   334  PRO334      0.0310
    147  CG        22.1510   58.0440  -40.8480 C.3   334  PRO334      0.0237
    148  CD        23.5750   57.8730  -41.2330 C.3   334  PRO334      0.0939
    149  N         24.9290   57.0360  -38.0830 N.am  335  ASN335     -0.1959
    150  CA        25.6540   56.2730  -37.0230 C.3   335  ASN335      0.1819
    151  C         26.9450   56.8670  -36.4710 C.2   335  ASN335      0.2621
    152  O         27.6720   57.5540  -37.1980 O.2   335  ASN335     -0.2715
    153  CB        25.9390   54.8100  -37.4210 C.3   335  ASN335      0.1195
    154  CG        26.2520   54.6260  -38.9040 C.2   335  ASN335      0.2630
    155  OD1       25.7990   55.4070  -39.7360 O.2   335  ASN335     -0.2716
    156  ND2       26.9930   53.5510  -39.2440 N.am  335  ASN335     -0.0877
    157  N         27.2350   56.6150  -35.1910 N.am  336  PHE336     -0.1974
    158  CA        28.6220   56.6980  -34.6930 C.3   336  PHE336      0.1639
    159  C         29.5070   55.9320  -35.6140 C.2   336  PHE336      0.2290
    160  O         29.1740   54.8670  -36.1150 O.2   336  PHE336     -0.2864
    161  CB        28.7680   56.1240  -33.3140 C.3   336  PHE336      0.0560
    162  CG        28.0690   56.9030  -32.3200 C.ar  336  PHE336     -0.0200
    163  CD1       26.7810   56.5550  -31.9440 C.ar  336  PHE336     -0.0042
    164  CD2       28.6390   58.0570  -31.8290 C.ar  336  PHE336     -0.0042
    165  CE1       26.1110   57.3290  -31.0470 C.ar  336  PHE336     -0.0003
    166  CE2       27.9670   58.8330  -30.9240 C.ar  336  PHE336     -0.0003
    167  CZ        26.7130   58.4790  -30.5180 C.ar  336  PHE336     -0.0000
    168  N         32.8720   54.2500  -37.0750 N.3   338  SER338     -0.1202
    169  CA        33.7530   53.3920  -36.3210 C.3   338  SER338      0.2020
    170  C         34.9870   53.1070  -37.1050 C.2   338  SER338      0.2619
    171  O         34.9790   52.2070  -37.9170 O.2   338  SER338     -0.2717
    172  CB        33.0370   52.0590  -36.0700 C.3   338  SER338      0.2103
    173  OG        33.6260   51.3580  -35.0050 O.3   338  SER338     -0.2182
    174  N         36.0630   53.8300  -36.8620 N.am  339  THR339     -0.1938
    175  CA        37.2140   53.6730  -37.7410 C.3   339  THR339      0.2028
    176  C         38.4460   53.1400  -37.0210 C.2   339  THR339      0.2642
    177  O         38.5680   53.2360  -35.8030 O.2   339  THR339     -0.2714
    178  CB        37.6110   55.0300  -38.3030 C.3   339  THR339      0.1808
    179  OG1       38.1740   55.8180  -37.2480 O.3   339  THR339     -0.2208
    180  CG2       36.4030   55.7620  -38.8170 C.3   339  THR339      0.0379
    181  N         39.3960   52.6590  -37.7790 N.am  340  SER340     -0.1949
    182  CA        40.6390   52.2930  -37.2150 C.3   340  SER340      0.1924
    183  C         41.8470   53.1950  -37.6190 C.2   340  SER340      0.2314
    184  O         41.8600   53.7420  -38.7200 O.2   340  SER340     -0.2863
    185  CB        40.9070   50.8830  -37.6280 C.3   340  SER340      0.2116
    186  OG        42.2530   50.6050  -37.2970 O.3   340  SER340     -0.2180
    187  N         41.3320   42.8790  -41.7110 N.3   346  MET346     -0.1245
    188  CA        41.1480   42.0470  -40.5490 C.3   346  MET346      0.1570
    189  C         39.9260   41.1800  -40.5840 C.2   346  MET346      0.2261
    190  O         39.0140   41.4310  -41.3580 O.2   346  MET346     -0.2867
    191  CB        41.0680   42.8590  -39.3110 C.3   346  MET346      0.0387
    192  CG        40.7270   44.2050  -39.5110 C.3   346  MET346      0.0595
    193  SD        41.3110   44.9440  -37.9720 S.3   346  MET346     -0.1393
    194  CE        42.9950   44.1470  -37.6760 C.3   346  MET346      0.0692
    195  N         37.2660   40.7530  -38.7470 N.3   348  ALA348     -0.1231
    196  CA        35.9250   41.3430  -38.6360 C.3   348  ALA348      0.1694
    197  C         35.3370   41.8640  -39.9650 C.2   348  ALA348      0.2592
    198  O         34.1030   41.7450  -40.1720 O.2   348  ALA348     -0.2718
    199  CB        35.8830   42.4240  -37.5990 C.3   348  ALA348      0.0304
    200  N         36.1790   42.4120  -40.8650 N.am  349  PHE349     -0.1976
    201  CA        35.7160   42.8690  -42.1710 C.3   349  PHE349      0.1639
    202  C         36.6040   42.4700  -43.3720 C.2   349  PHE349      0.2290
    203  O         36.6770   43.1980  -44.4060 O.2   349  PHE349     -0.2864
    204  CB        35.5930   44.3430  -42.1160 C.3   349  PHE349      0.0560
    205  CG        36.7560   45.0020  -41.4910 C.ar  349  PHE349     -0.0200
    206  CD1       37.9120   45.2520  -42.2310 C.ar  349  PHE349     -0.0042
    207  CD2       36.7100   45.4110  -40.1590 C.ar  349  PHE349     -0.0042
    208  CE1       39.0180   45.9030  -41.6430 C.ar  349  PHE349     -0.0003
    209  CE2       37.8250   46.0820  -39.5550 C.ar  349  PHE349     -0.0003
    210  CZ        38.9740   46.3020  -40.2860 C.ar  349  PHE349     -0.0000
    211  N         34.9430   43.1070  -46.8920 N.3   352  ARG352     -0.1245
    212  CA        34.4350   44.4250  -47.3300 C.3   352  ARG352      0.1563
    213  C         35.3230   45.0790  -48.3580 C.2   352  ARG352      0.2260
    214  O         36.5460   44.9990  -48.3200 O.2   352  ARG352     -0.2867
    215  CB        34.2270   45.3920  -46.1900 C.3   352  ARG352      0.0307
    216  CG        33.1810   44.9460  -45.2610 C.3   352  ARG352      0.0489
    217  CD        32.9570   45.9700  -44.2000 C.3   352  ARG352      0.2205
    218  NE        32.0710   45.4590  -43.1650 N.pl3 352  ARG352     -0.0865
    219  CZ        31.6110   46.1780  -42.1460 C.cat 352  ARG352      0.5346
    220  NH1       31.9590   47.4670  -42.0040 N.pl3 352  ARG352      0.1354
    221  NH2       30.8420   45.6050  -41.2300 N.pl3 352  ARG352      0.1354
    222  N         38.8370   45.5050  -23.3600 N.3   375  TYR375     -0.1241
    223  CA        38.3360   46.0210  -24.6750 C.3   375  TYR375      0.1605
    224  C         39.4190   45.9980  -25.7820 C.2   375  TYR375      0.2264
    225  O         39.1150   45.7340  -26.9470 O.2   375  TYR375     -0.2867
    226  CB        37.8200   47.4980  -24.5030 C.3   375  TYR375      0.0534
    227  CG        36.8590   48.0230  -25.6090 C.ar  375  TYR375     -0.0201
    228  CD1       37.2920   48.8900  -26.6380 C.ar  375  TYR375     -0.0009
    229  CD2       35.5070   47.6380  -25.6180 C.ar  375  TYR375     -0.0009
    230  CE1       36.3850   49.3370  -27.6410 C.ar  375  TYR375      0.0417
    231  CE2       34.6320   48.0710  -26.6160 C.ar  375  TYR375      0.0417
    232  CZ        35.0630   48.9160  -27.6060 C.ar  375  TYR375      0.1957
    233  OH        34.1270   49.2910  -28.5280 O.3   375  TYR375     -0.2866
    234  N         42.2490   46.4640  -31.3760 N.3   378  GLU378     -0.1245
    235  CA        41.9040   46.7160  -32.8180 C.3   378  GLU378      0.1567
    236  C         42.0420   48.1910  -33.2600 C.2   378  GLU378      0.2260
    237  O         41.7290   48.5560  -34.3990 O.2   378  GLU378     -0.2867
    238  CB        40.5500   46.0860  -33.2530 C.3   378  GLU378      0.0388
    239  CG        39.2880   46.8690  -32.8590 C.3   378  GLU378      0.1160
    240  CD        38.9780   46.8190  -31.3560 C.2   378  GLU378      0.3649
    241  OE1       39.8040   47.3150  -30.5450 O.co2 378  GLU378     -0.2457
    242  OE2       37.8950   46.2990  -30.9770 O.co2 378  GLU378     -0.2457
    243  N         40.8810   51.3400  -32.4890 N.3   380  GLU380     -0.1245
    244  CA        39.6720   51.9370  -32.9540 C.3   380  GLU380      0.1567
    245  C         39.5860   53.3950  -32.5650 C.2   380  GLU380      0.2260
    246  O         39.9780   53.7880  -31.4480 O.2   380  GLU380     -0.2867
    247  CB        38.4900   51.1570  -32.4150 C.3   380  GLU380      0.0388
    248  CG        37.1620   51.7010  -32.8500 C.3   380  GLU380      0.1160
    249  CD        35.9750   50.8460  -32.4010 C.2   380  GLU380      0.3649
    250  OE1       34.8360   51.1510  -32.8860 O.co2 380  GLU380     -0.2457
    251  OE2       36.1740   49.8810  -31.5820 O.co2 380  GLU380     -0.2457
@<TRIPOS>BOND
     1   102   103    1
     2   102    99    1
     3   101   100    2
     4   103   104    1
     5    99   100    1
     6    99    98    1
     7   100   105   am
     8   213   214    2
     9   213   212    1
    10    98   104    1
    11    98    96   am
    12   108   107    2
    13   117   116    2
    14   116   115    1
    15   105   106    1
    16   107   106    1
    17   107   114   am
    18    96    97    2
    19    96    95    1
    20   106   109    1
    21   112   111    2
    22   212   211    1
    23   212   215    1
    24   114   115    1
    25   115   118    1
    26    95    94    1
    27   111   110    1
    28   111   113   am
    29   215   216    1
    30    93    91    1
    31   109   110    1
    32   118   119    1
    33    90    91    2
    34    90    89    1
    35   123   124    1
    36    91    92    1
    37   216   217    1
    38    89    88    1
    39    69    67   ar
    40    69    70   ar
    41   141   140    1
    42    75    74    2
    43   128   127    1
    44    71    70    1
    45   203   202    2
    46   119   120    1
    47    67    65   ar
    48    88    87    1
    49   217   218    1
    50   139   140   ar
    51   139   137   ar
    52    85    84    1
    53    85    86    2
    54   124   127    1
    55   124   125    1
    56    84    87    1
    57    84    83    1
    58    70    68   ar
    59   120   122   ar
    60   120   121   ar
    61   126   125    2
    62   140   138   ar
    63   127   129    1
    64   125   130   am
    65   202   201    1
    66    74    83   am
    67    74    73    1
    68   137   135   ar
    69   218   219    2
    70    65    64    1
    71    65    66   ar
    72   138   136   ar
    73    68    66   ar
    74    72    73    1
    75    72    62   am
    76    64    61    1
    77    73    76    1
    78   206   208   ar
    79   206   205   ar
    80   130   131    1
    81    76    77    1
    82   201   204    1
    83   201   200    1
    84   219   220    1
    85   219   221    1
    86   204   205    1
    87   135   136   ar
    88   135   134    1
    89    61    62    1
    90    61    60    1
    91    77    78    1
    92    79    78    1
    93    79    80    2
    94   187   188    1
    95    62    63    2
    96   208   210   ar
    97   205   207   ar
    98   131   134    1
    99   131   132    1
   100    58    56    1
   101   190   189    2
   102    82    80    1
   103   148   147    1
   104   148   142    1
   105    80    81    1
   106   200   197   am
   107   147   146    1
   108   189   188    1
   109   188   191    1
   110    55    54    2
   111   210   209   ar
   112   142   132   am
   113   142   143    1
   114   132   133    2
   115   198   197    2
   116   207   209   ar
   117   197   196    1
   118    54    53    1
   119    56    53    1
   120    56    57    1
   121   155   154    2
   122    59    57    1
   123   192   191    1
   124   192   193    1
   125    53    52    1
   126   146   143    1
   127   156   154   am
   128   143   144    1
   129   154   153    1
   130    51    49   am
   131   180   178    1
   132   195   196    1
   133   184   183    2
   134   196   199    1
   135   178   175    1
   136   178   179    1
   137   149   144   am
   138   149   150    1
   139   193   194    1
   140   171   170    2
   141   144   145    2
   142   181   182    1
   143   181   176   am
   144   175   176    1
   145   175   174    1
   146    49    50    2
   147    49    48    1
   148   185   186    1
   149   185   182    1
   150   183   182    1
   151   153   150    1
   152   152   151    2
   153   170   174   am
   154   170   169    1
   155   168   169    1
   156   150   151    1
   157   176   177    2
   158    35    33    1
   159    47    46    2
   160   151   157   am
   161    45    48    1
   162    45    46    1
   163    45    44    1
   164   169   172    1
   165    39    38    2
   166   160   159    2
   167    40    41    1
   168    40    37    1
   169   172   173    1
   170    43    41   am
   171    44    38   am
   172    38    37    1
   173    41    42    2
   174    28    27    1
   175   159   158    1
   176    33    34    1
   177    33    30    1
   178    26    27   ar
   179    26    24   ar
   180   157   158    1
   181    37    36    1
   182    27    25   ar
   183    24    22   ar
   184   158   161    1
   185    30    31    1
   186    30    29    1
   187    32    31    2
   188    12    11    1
   189   237   236    2
   190    25    23   ar
   191    29    19   am
   192    22    23   ar
   193    22    21    1
   194    20    19    2
   195   161   162    1
   196   236   235    1
   197   238   239    1
   198   238   235    1
   199    11    10   ar
   200    11     9   ar
   201    19    18    1
   202   244   245    1
   203   244   243    1
   204   244   247    1
   205   250   249   ar
   206    21    18    1
   207   239   240    1
   208   248   247    1
   209   248   249    1
   210   235   234    1
   211    10     8   ar
   212   245   246    2
   213   249   251   ar
   214   162   163   ar
   215   162   164   ar
   216     9     7   ar
   217    18    17    1
   218   163   165   ar
   219   164   166   ar
   220   240   242   ar
   221   240   241   ar
   222     8     6   ar
   223   165   167   ar
   224   166   167   ar
   225     7     6   ar
   226     6     5    1
   227    16    15    2
   228    15    14    1
   229     5     2    1
   230     4     3    2
   231   233   232    1
   232     2     3    1
   233     2     1    1
   234    14    13    1
   235   230   232   ar
   236   230   228   ar
   237   232   231   ar
   238   225   224    2
   239   228   227   ar
   240   231   229   ar
   241   224   223    1
   242   229   227   ar
   243   227   226    1
   244   223   226    1
   245   223   222    1
