@<TRIPOS>MOLECULE
tmp/3bv9B00.pdb
 221 221 0 0 0
SMALL
GASTEIGER

@<TRIPOS>ATOM
      1  N         13.0740   28.6640   16.3050 N.3    43  HIS43      -0.1241
      2  CA        14.0990   27.6520   16.6270 C.3    43  HIS43       0.1621
      3  C         15.2670   27.5770   15.6320 C.2    43  HIS43       0.2264
      4  O         16.3320   27.0060   15.9280 O.2    43  HIS43      -0.2867
      5  CB        13.4650   26.2630   16.8670 C.3    43  HIS43       0.0745
      6  CG        13.1680   25.4700   15.6290 C.ar   43  HIS43       0.0817
      7  ND1       11.9030   25.3840   15.0850 N.ar   43  HIS43      -0.2268
      8  CD2       13.9480   24.6430   14.8900 C.ar   43  HIS43       0.1154
      9  CE1       11.9160   24.5380   14.0700 C.ar   43  HIS43       0.1986
     10  NE2       13.1440   24.0730   13.9330 N.ar   43  HIS43      -0.2212
     11  N         18.1150   28.1050   19.5660 N.3    47  TYR47      -0.1241
     12  CA        17.7900   26.7670   20.0520 C.3    47  TYR47       0.1605
     13  C         19.0690   25.9620   20.2710 C.2    47  TYR47       0.2264
     14  O         19.5200   25.2280   19.3840 O.2    47  TYR47      -0.2867
     15  CB        16.8920   26.0310   19.0630 C.3    47  TYR47       0.0534
     16  CG        16.1420   24.8740   19.6780 C.ar   47  TYR47      -0.0201
     17  CD1       15.0370   25.0980   20.4940 C.ar   47  TYR47      -0.0009
     18  CD2       16.5420   23.5450   19.4550 C.ar   47  TYR47      -0.0009
     19  CE1       14.3410   24.0440   21.0740 C.ar   47  TYR47       0.0417
     20  CE2       15.8480   22.4760   20.0340 C.ar   47  TYR47       0.0417
     21  CZ        14.7500   22.7350   20.8420 C.ar   47  TYR47       0.1957
     22  OH        14.0490   21.7010   21.4170 O.3    47  TYR47      -0.2866
     23  N         19.9450   22.2010   19.3790 N.3    50  TRP50      -0.1241
     24  CA        20.1080   21.9130   17.9480 C.3    50  TRP50       0.1605
     25  C         21.1920   22.7890   17.3420 C.2    50  TRP50       0.2264
     26  O         21.1530   23.1050   16.1490 O.2    50  TRP50      -0.2867
     27  CB        18.7940   22.1490   17.1810 C.3    50  TRP50       0.0550
     28  CG        18.7830   21.4990   15.8190 C.ar   50  TRP50       0.0003
     29  CD1       19.3800   20.3110   15.4700 C.ar   50  TRP50       0.0946
     30  CD2       18.1170   21.9690   14.6370 C.ar   50  TRP50       0.0152
     31  NE1       19.1270   20.0190   14.1470 N.ar   50  TRP50      -0.2442
     32  CE2       18.3570   21.0190   13.6140 C.ar   50  TRP50       0.0810
     33  CE3       17.3420   23.1030   14.3440 C.ar   50  TRP50       0.0012
     34  CZ2       17.8520   21.1700   12.3200 C.ar   50  TRP50       0.0191
     35  CZ3       16.8380   23.2520   13.0450 C.ar   50  TRP50       0.0001
     36  CH2       17.0970   22.2900   12.0570 C.ar   50  TRP50       0.0015
     37  N         11.1100   27.8570   24.0650 N.3    92  TRP92      -0.1241
     38  CA        11.8610   26.6910   23.6100 C.3    92  TRP92       0.1605
     39  C         11.9630   25.5940   24.6470 C.2    92  TRP92       0.2264
     40  O         11.9040   24.4060   24.3250 O.2    92  TRP92      -0.2867
     41  CB        13.2600   27.0440   23.0640 C.3    92  TRP92       0.0550
     42  CG        14.2170   27.8220   23.9150 C.ar   92  TRP92       0.0003
     43  CD1       14.1790   29.1650   24.1710 C.ar   92  TRP92       0.0946
     44  CD2       15.4840   27.3570   24.4310 C.ar   92  TRP92       0.0152
     45  NE1       15.3460   29.5670   24.7830 N.ar   92  TRP92      -0.2442
     46  CE2       16.1620   28.4770   24.9530 C.ar   92  TRP92       0.0810
     47  CE3       16.1070   26.0950   24.4880 C.ar   92  TRP92       0.0012
     48  CZ2       17.4430   28.3840   25.5290 C.ar   92  TRP92       0.0191
     49  CZ3       17.3840   26.0010   25.0640 C.ar   92  TRP92       0.0001
     50  CH2       18.0340   27.1390   25.5720 C.ar   92  TRP92       0.0015
     51  N          7.6990   22.6200   24.2330 N.3    95  ASN95      -0.1225
     52  CA         6.9400   22.5390   22.9810 C.3    95  ASN95       0.1785
     53  C          7.0940   23.5720   21.8460 C.2    95  ASN95       0.2597
     54  O          6.3950   23.4740   20.8360 O.2    95  ASN95      -0.2718
     55  CB         5.4370   22.3270   23.3080 C.3    95  ASN95       0.1169
     56  CG         4.7430   23.5910   23.8210 C.2    95  ASN95       0.2627
     57  OD1        5.3450   24.4520   24.4520 O.2    95  ASN95      -0.2716
     58  ND2        3.4410   23.6830   23.5550 N.am   95  ASN95      -0.0877
     59  N          7.9980   24.5450   21.9800 N.am   96  LEU96      -0.1980
     60  CA         8.2110   25.5440   20.9230 C.3    96  LEU96       0.1596
     61  C          6.9730   26.3790   20.5990 C.2    96  LEU96       0.2287
     62  O          6.7210   26.6930   19.4300 O.2    96  LEU96      -0.2864
     63  CB         8.6830   24.8590   19.6300 C.3    96  LEU96       0.0297
     64  CG         9.9880   24.0720   19.6780 C.3    96  LEU96       0.0022
     65  CD1       10.1590   23.2980   18.3790 C.3    96  LEU96       0.0001
     66  CD2       11.1510   25.0080   19.8760 C.3    96  LEU96       0.0001
     67  N         20.4530   10.2280    4.3700 N.3   154  LYS154     -0.1245
     68  CA        19.1350   10.8210    4.5420 C.3   154  LYS154      0.1561
     69  C         18.7250   11.5490    3.2680 C.2   154  LYS154      0.2260
     70  O         17.5330   11.7550    3.0220 O.2   154  LYS154     -0.2867
     71  CB        19.1400   11.7950    5.7030 C.3   154  LYS154      0.0271
     72  CG        19.3780   11.1240    7.0540 C.3   154  LYS154      0.0035
     73  CD        19.6380   12.2200    8.0540 C.3   154  LYS154      0.0206
     74  CE        19.8480   11.7060    9.4420 C.3   154  LYS154      0.1093
     75  NZ        20.0990   12.8930   10.2980 N.3   154  LYS154     -0.1314
     76  N          3.8460   15.2600   23.3810 N.3   179  ILE179     -0.1245
     77  CA         4.2240   16.6770   23.4740 C.3   179  ILE179      0.1561
     78  C          2.9640   17.5510   23.4840 C.2   179  ILE179      0.2260
     79  O          2.0310   17.3340   22.6960 O.2   179  ILE179     -0.2867
     80  CB         5.1260   17.0750   22.2910 C.3   179  ILE179      0.0252
     81  CG1        6.3840   16.2040   22.3140 C.3   179  ILE179      0.0019
     82  CG2        5.4940   18.5650   22.3760 C.3   179  ILE179      0.0019
     83  CD1        7.1510   16.2090   21.0390 C.3   179  ILE179      0.0001
     84  N          5.7930   14.4840    4.2530 N.3   199  ASP199     -0.1225
     85  CA         6.0340   15.2500    5.4710 C.3   199  ASP199      0.1805
     86  C          7.2240   16.1620    5.2330 C.2   199  ASP199      0.2598
     87  O          7.9910   15.9510    4.2780 O.2   199  ASP199     -0.2718
     88  CB         6.3720   14.2760    6.6000 C.3   199  ASP199      0.1424
     89  CG         6.3400   14.9060    7.9920 C.2   199  ASP199      0.3668
     90  OD1        5.7900   16.0150    8.1740 O.co2 199  ASP199     -0.2456
     91  OD2        6.8710   14.2540    8.9220 O.co2 199  ASP199     -0.2456
     92  N          7.3580   17.1730    6.0870 N.am  200  ALA200     -0.1966
     93  CA         8.5330   18.0390    6.0530 C.3   200  ALA200      0.1728
     94  C          9.5230   17.1860    6.8320 C.2   200  ALA200      0.2616
     95  O          9.1260   16.1710    7.4340 O.2   200  ALA200     -0.2715
     96  CB         8.2760   19.3470    6.7930 C.3   200  ALA200      0.0334
     97  N         10.7880   17.5840    6.8620 N.am  201  CYS201     -0.1954
     98  CA        11.7920   16.7870    7.5720 C.3   201  CYS201      0.1843
     99  C         12.9230   17.6740    8.0690 C.2   201  CYS201      0.2625
    100  O         12.8580   18.9150    7.9740 O.2   201  CYS201     -0.2714
    101  CB        12.3010   15.6810    6.6310 C.3   201  CYS201      0.0997
    102  SG        13.1730   14.2430    7.4010 S.3   201  CYS201     -0.0797
    103  N         13.9580   17.0440    8.6130 N.am  202  GLU202     -0.1963
    104  CA        15.1160   17.7670    9.0970 C.3   202  GLU202      0.1733
    105  C         15.6110   18.6680    7.9650 C.2   202  GLU202      0.2616
    106  O         15.7680   18.2130    6.8210 O.2   202  GLU202     -0.2715
    107  CB        16.2110   16.7670    9.4900 C.3   202  GLU202      0.0429
    108  CG        17.5050   17.4230    9.9170 C.3   202  GLU202      0.1163
    109  CD        18.6150   16.4320   10.2940 C.2   202  GLU202      0.3649
    110  OE1       18.3880   15.2070   10.2760 O.co2 202  GLU202     -0.2457
    111  OE2       19.7320   16.8990   10.5970 O.co2 202  GLU202     -0.2457
    112  N         15.8540   19.9310    8.2840 N.am  203  GLY203     -0.1955
    113  CA        16.3130   20.8840    7.2840 C.3   203  GLY203      0.1869
    114  C         15.1890   21.7050    6.6480 C.2   203  GLY203      0.2309
    115  O         15.4640   22.6840    5.9520 O.2   203  GLY203     -0.2863
    116  N         12.7160   23.0370    8.5220 N.3   205  SER205     -0.1217
    117  CA        12.2810   23.9510    9.5810 C.3   205  SER205      0.1889
    118  C         12.3490   25.3970    9.0940 C.2   205  SER205      0.2288
    119  O         13.2940   25.8010    8.4010 O.2   205  SER205     -0.2866
    120  CB        13.1990   23.8620   10.8190 C.3   205  SER205      0.2089
    121  OG        13.1350   22.6100   11.4570 O.3   205  SER205     -0.2183
    122  N          7.0740   25.5880    9.1380 N.3   225  VAL225     -0.1231
    123  CA         7.5330   24.2530    9.5650 C.3   225  VAL225      0.1692
    124  C          8.1820   24.4230   10.9240 C.2   225  VAL225      0.2593
    125  O          9.2020   25.1280   11.0450 O.2   225  VAL225     -0.2718
    126  CB         8.5510   23.6640    8.5810 C.3   225  VAL225      0.0266
    127  CG1        9.0670   22.3380    9.1020 C.3   225  VAL225      0.0020
    128  CG2        7.8760   23.5180    7.2060 C.3   225  VAL225      0.0020
    129  N          7.5980   23.7690   11.9330 N.am  226  SER226     -0.1938
    130  CA         8.0540   23.9250   13.3080 C.3   226  SER226      0.2055
    131  C          8.6850   22.7210   13.9600 C.2   226  SER226      0.2643
    132  O          9.8510   22.7720   14.3570 O.2   226  SER226     -0.2714
    133  CB         6.8880   24.4230   14.1850 C.3   226  SER226      0.2130
    134  OG         7.3390   24.7240   15.4980 O.3   226  SER226     -0.2179
    135  N          7.9190   21.6510   14.1210 N.am  227  TRP227     -0.1959
    136  CA         8.4850   20.4460   14.7150 C.3   227  TRP227      0.1771
    137  C          7.8010   19.1750   14.2720 C.2   227  TRP227      0.2620
    138  O          6.7570   19.1950   13.6140 O.2   227  TRP227     -0.2715
    139  CB         8.4970   20.5170   16.2600 C.3   227  TRP227      0.0590
    140  CG         7.1620   20.7290   16.9150 C.ar  227  TRP227      0.0006
    141  CD1        6.4910   21.9080   17.0610 C.ar  227  TRP227      0.0946
    142  CD2        6.3530   19.7270   17.5420 C.ar  227  TRP227      0.0152
    143  NE1        5.3100   21.7040   17.7500 N.ar  227  TRP227     -0.2442
    144  CE2        5.2040   20.3730   18.0540 C.ar  227  TRP227      0.0810
    145  CE3        6.4920   18.3460   17.7280 C.ar  227  TRP227      0.0012
    146  CZ2        4.1970   19.6830   18.7290 C.ar  227  TRP227      0.0191
    147  CZ3        5.4930   17.6620   18.4020 C.ar  227  TRP227      0.0001
    148  CH2        4.3600   18.3310   18.8920 C.ar  227  TRP227      0.0015
    149  N          8.4530   18.0620   14.6110 N.am  228  GLY228     -0.1940
    150  CA         7.9480   16.7360   14.3170 C.3   228  GLY228      0.2014
    151  C          8.8160   15.7340   15.0760 C.2   228  GLY228      0.2639
    152  O          9.8540   16.0980   15.6390 O.2   228  GLY228     -0.2714
    153  N          8.3900   14.4800   15.0930 N.am  229  GLU229     -0.1963
    154  CA         9.1450   13.4070   15.7400 C.3   229  GLU229      0.1733
    155  C          9.5170   12.4770   14.5970 C.2   229  GLU229      0.2617
    156  O          8.7190   11.6540   14.1590 O.2   229  GLU229     -0.2715
    157  CB         8.2690   12.7140   16.7800 C.3   229  GLU229      0.0429
    158  CG         8.0980   13.5950   18.0020 C.3   229  GLU229      0.1163
    159  CD         7.0180   13.1260   18.9590 C.2   229  GLU229      0.3649
    160  OE1        5.8260   13.2240   18.6080 O.co2 229  GLU229     -0.2457
    161  OE2        7.3730   12.6760   20.0710 O.co2 229  GLU229     -0.2457
    162  N         10.7410   12.6380   14.1060 N.am  230  GLY230     -0.1940
    163  CA        11.1700   11.8580   12.9680 C.3   230  GLY230      0.2014
    164  C         10.4600   12.5020   11.7820 C.2   230  GLY230      0.2639
    165  O          9.9980   13.6360   11.9140 O.2   230  GLY230     -0.2714
    166  N         10.3470   11.7830   10.6660 N.am  231  CYS231     -0.1967
    167  CA         9.7100   12.2810    9.4400 C.3   231  CYS231      0.1712
    168  C          8.8740   11.2020    8.7630 C.2   231  CYS231      0.2296
    169  O          9.3450   10.0630    8.5740 O.2   231  CYS231     -0.2864
    170  CB        10.7840   12.7230    8.4230 C.3   231  CYS231      0.0983
    171  SG        12.0790   13.8360    9.0720 S.3   231  CYS231     -0.0798
    172  N          6.4610    9.2380    9.6240 N.3   233  ARG233     -0.1245
    173  CA         6.1270    7.9820   10.2850 C.3   233  ARG233      0.1563
    174  C          4.6090    7.8230   10.3260 C.2   233  ARG233      0.2260
    175  O          3.8780    8.8080   10.4710 O.2   233  ARG233     -0.2867
    176  CB         6.6340    7.9820   11.7160 C.3   233  ARG233      0.0307
    177  CG         8.1230    8.0630   11.8320 C.3   233  ARG233      0.0489
    178  CD         8.4930    8.0190   13.2930 C.3   233  ARG233      0.2205
    179  NE         9.9040    8.2790   13.4930 N.pl3 233  ARG233     -0.0865
    180  CZ        10.4550    8.5010   14.6820 C.cat 233  ARG233      0.5346
    181  NH1        9.7100    8.4880   15.7820 N.pl3 233  ARG233      0.1354
    182  NH2       11.7410    8.7920   14.7640 N.pl3 233  ARG233      0.1354
    183  N          2.5140   13.2980   12.7470 N.3   237  TYR237     -0.1227
    184  CA         2.1910   14.4200   11.8850 C.3   237  TYR237      0.1736
    185  C          3.1810   15.5410   12.0570 C.2   237  TYR237      0.2596
    186  O          3.8790   15.6060   13.0610 O.2   237  TYR237     -0.2718
    187  CB         0.7860   14.9260   12.2210 C.3   237  TYR237      0.0548
    188  CG        -0.2460   13.8460   12.0610 C.ar  237  TYR237     -0.0200
    189  CD1       -0.8260   13.5980   10.8250 C.ar  237  TYR237     -0.0009
    190  CD2       -0.5850   13.0020   13.1410 C.ar  237  TYR237     -0.0009
    191  CE1       -1.7180   12.5380   10.6380 C.ar  237  TYR237      0.0417
    192  CE2       -1.4790   11.9440   12.9640 C.ar  237  TYR237      0.0417
    193  CZ        -2.0380   11.7140   11.7120 C.ar  237  TYR237      0.1957
    194  OH        -2.8930   10.6460   11.5190 O.3   237  TYR237     -0.2866
    195  N          3.2390   16.4250   11.0660 N.am  238  GLY238     -0.1942
    196  CA         4.1280   17.5620   11.1630 C.3   238  GLY238      0.2014
    197  C          3.4100   18.6930   11.8630 C.2   238  GLY238      0.2639
    198  O          2.1950   18.8930   11.6920 O.2   238  GLY238     -0.2714
    199  N          4.1510   19.4470   12.6560 N.am  239  PHE239     -0.1959
    200  CA         3.5430   20.5710   13.3360 C.3   239  PHE239      0.1771
    201  C          4.0410   21.8600   12.7650 C.2   239  PHE239      0.2619
    202  O          5.2260   22.0000   12.4200 O.2   239  PHE239     -0.2715
    203  CB         3.7870   20.4830   14.8300 C.3   239  PHE239      0.0574
    204  CG         2.9440   19.4340   15.4770 C.ar  239  PHE239     -0.0200
    205  CD1        3.3070   18.0950   15.3980 C.ar  239  PHE239     -0.0042
    206  CD2        1.7210   19.7750   16.0680 C.ar  239  PHE239     -0.0042
    207  CE1        2.4560   17.0910   15.9010 C.ar  239  PHE239     -0.0003
    208  CE2        0.8670   18.7890   16.5690 C.ar  239  PHE239     -0.0003
    209  CZ         1.2320   17.4420   16.4860 C.ar  239  PHE239     -0.0000
    210  N          3.1190   22.8140   12.6900 N.am  240  TYR240     -0.1974
    211  CA         3.3980   24.1040   12.1010 C.3   240  TYR240      0.1639
    212  C          2.9550   25.2520   12.9720 C.2   240  TYR240      0.2290
    213  O          1.9240   25.1780   13.6300 O.2   240  TYR240     -0.2864
    214  CB         2.6690   24.2140   10.7610 C.3   240  TYR240      0.0560
    215  CG         3.0170   23.1140    9.7970 C.ar  240  TYR240     -0.0198
    216  CD1        2.4950   21.8250    9.9540 C.ar  240  TYR240     -0.0009
    217  CD2        3.9360   23.3340    8.7590 C.ar  240  TYR240     -0.0009
    218  CE1        2.8870   20.7820    9.1140 C.ar  240  TYR240      0.0417
    219  CE2        4.3290   22.2940    7.9140 C.ar  240  TYR240      0.0417
    220  CZ         3.8040   21.0290    8.0990 C.ar  240  TYR240      0.1957
    221  OH         4.2010   20.0070    7.2850 O.3   240  TYR240     -0.2866
@<TRIPOS>BOND
     1    70    69    2
     2    69    68    1
     3    84    85    1
     4    87    86    2
     5    67    68    1
     6    68    71    1
     7    86    85    1
     8    86    92   am
     9    85    88    1
    10    71    72    1
    11   115   114    2
    12    93    92    1
    13    93    96    1
    14    93    94    1
    15    88    89    1
    16   101   102    1
    17   101    98    1
    18   114   113    1
    19   106   105    2
    20    94    97   am
    21    94    95    2
    22    97    98    1
    23    72    73    1
    24   128   126    1
    25   113   112    1
    26   221   220    1
    27   102   171    1
    28    98    99    1
    29   219   220   ar
    30   219   217   ar
    31   105   112   am
    32   105   104    1
    33   100    99    2
    34    89    90   ar
    35    89    91   ar
    36    73    74    1
    37    99   103   am
    38   220   218   ar
    39   119   118    2
    40   170   171    1
    41   170   167    1
    42   116   117    1
    43   169   168    2
    44   126   127    1
    45   126   123    1
    46   103   104    1
    47   217   215   ar
    48   168   167    1
    49   118   117    1
    50   104   107    1
    51   218   216   ar
    52   122   123    1
    53   167   166    1
    54    74    75    1
    55   107   108    1
    56   123   124    1
    57   117   120    1
    58   172   173    1
    59   215   216   ar
    60   215   214    1
    61   108   109    1
    62   110   109   ar
    63   173   174    1
    64   173   176    1
    65   109   111   ar
    66   174   175    2
    67   191   189   ar
    68   191   193   ar
    69   166   164   am
    70   214   211    1
    71   120   121    1
    72   189   188   ar
    73   124   125    2
    74   124   129   am
    75   195   196    1
    76   195   185   am
    77   196   197    1
    78   194   193    1
    79   198   197    2
    80   193   192   ar
    81   176   177    1
    82   164   165    2
    83   164   163    1
    84   177   178    1
    85   197   199   am
    86   184   185    1
    87   184   187    1
    88   184   183    1
    89   129   130    1
    90   185   186    2
    91    36    34   ar
    92    36    35   ar
    93   188   187    1
    94   188   190   ar
    95   211   210    1
    96   211   212    1
    97    34    32   ar
    98   202   201    2
    99   199   200    1
   100   210   201   am
   101   201   200    1
   102   192   190   ar
   103   163   162    1
   104   212   213    2
   105    35    33   ar
   106   178   179    1
   107   130   131    1
   108   130   133    1
   109   200   203    1
   110   179   180    2
   111    32    31   ar
   112    32    30   ar
   113   138   137    2
   114    10     9   ar
   115    10     8   ar
   116   131   135   am
   117   131   132    2
   118     9     7   ar
   119   162   155   am
   120   135   136    1
   121    31    29   ar
   122   156   155    2
   123   133   134    1
   124   137   149   am
   125   137   136    1
   126   150   149    1
   127   150   151    1
   128    33    30   ar
   129   155   154    1
   130    30    28   ar
   131   180   182    1
   132   180   181    1
   133   136   139    1
   134   203   204    1
   135     8     6   ar
   136   151   153   am
   137   151   152    2
   138     7     6   ar
   139   153   154    1
   140   205   204   ar
   141   205   207   ar
   142    29    28   ar
   143   204   206   ar
   144     6     5    1
   145     3     4    2
   146     3     2    1
   147   154   157    1
   148    28    27    1
   149   207   209   ar
   150   206   208   ar
   151    26    25    2
   152   139   140    1
   153     1     2    1
   154   209   208   ar
   155     2     5    1
   156   157   158    1
   157   140   141   ar
   158   140   142   ar
   159   141   143   ar
   160    27    24    1
   161    25    24    1
   162   142   145   ar
   163   142   144   ar
   164   145   147   ar
   165   143   144   ar
   166    24    23    1
   167   158   159    1
   168   144   146   ar
   169    65    64    1
   170   147   148   ar
   171   160   159   ar
   172   146   148   ar
   173   159   161   ar
   174    15    16    1
   175    15    12    1
   176    14    13    2
   177    62    61    2
   178    18    16   ar
   179    18    20   ar
   180    11    12    1
   181    63    64    1
   182    63    60    1
   183    16    17   ar
   184    64    66    1
   185    20    21   ar
   186    12    13    1
   187    17    19   ar
   188    61    60    1
   189    54    53    2
   190    21    19   ar
   191    21    22    1
   192    60    59    1
   193    83    81    1
   194    53    59   am
   195    53    52    1
   196    80    81    1
   197    80    82    1
   198    80    77    1
   199    79    78    2
   200    52    55    1
   201    52    51    1
   202    41    38    1
   203    41    42    1
   204    55    56    1
   205    76    77    1
   206    77    78    1
   207    58    56   am
   208    38    37    1
   209    38    39    1
   210    56    57    2
   211    42    43   ar
   212    42    44   ar
   213    43    45   ar
   214    40    39    2
   215    44    47   ar
   216    44    46   ar
   217    47    49   ar
   218    45    46   ar
   219    46    48   ar
   220    49    50   ar
   221    48    50   ar
