@<TRIPOS>MOLECULE
tmp/3bvaA00.pdb
 126 116 0 0 0
SMALL
GASTEIGER

@<TRIPOS>ATOM
      1  N          2.7090   23.9700   17.4190 N.3     8  ARG8       -0.1245
      2  CA         3.9480   24.6090   16.9270 C.3     8  ARG8        0.1563
      3  C          3.6740   26.0150   16.4410 C.2     8  ARG8        0.2260
      4  O          2.6770   26.2210   15.7030 O.2     8  ARG8       -0.2867
      5  CB         4.5140   23.7700   15.7870 C.3     8  ARG8        0.0307
      6  CG         5.0400   22.4400   16.2120 C.3     8  ARG8        0.0489
      7  CD         5.4300   21.5370   15.0820 C.3     8  ARG8        0.2205
      8  NE         5.9230   20.2200   15.5880 N.pl3   8  ARG8       -0.0865
      9  CZ         5.9360   19.1040   14.8860 C.cat   8  ARG8        0.5346
     10  NH1        5.4850   19.0440   13.6340 N.pl3   8  ARG8        0.1354
     11  NH2        6.4030   17.9970   15.4150 N.pl3   8  ARG8        0.1354
     12  N          8.9160   28.1480   11.5120 N.3    23  LEU23      -0.1245
     13  CA         8.7950   27.9450   12.9450 C.3    23  LEU23       0.1561
     14  C          9.4910   29.0540   13.7110 C.2    23  LEU23       0.2260
     15  O         10.6810   29.2780   13.5590 O.2    23  LEU23      -0.2867
     16  CB         9.4410   26.5920   13.2650 C.3    23  LEU23       0.0270
     17  CG         9.4160   26.1280   14.7310 C.3    23  LEU23       0.0019
     18  CD1        8.0270   25.7750   15.1520 C.3    23  LEU23       0.0001
     19  CD2       10.3770   24.9840   14.8960 C.3    23  LEU23       0.0001
     20  N         11.3970   30.0870   16.6220 N.3    25  ASN25      -0.1240
     21  CA        12.2200   29.2220   17.4390 C.3    25  ASN25       0.1653
     22  C         13.1360   30.0210   18.3530 C.2    25  ASN25       0.2266
     23  O         14.2320   30.4120   17.9800 O.2    25  ASN25      -0.2867
     24  CB        13.0380   28.3100   16.5100 C.3    25  ASN25       0.1155
     25  CG        13.7950   27.2110   17.1430 C.2    25  ASN25       0.2627
     26  OD1       14.3720   26.3170   16.3860 O.2    25  ASN25      -0.2716
     27  ND2       13.8290   27.1440   18.3920 N.am   25  ASN25      -0.0877
     28  N         14.8010   28.8700   20.6780 N.3    27  GLY27      -0.1210
     29  CA        15.9550   28.0250   20.8440 C.3    27  GLY27       0.1956
     30  C         16.9560   28.0380   19.7570 C.2    27  GLY27       0.2612
     31  O         17.9570   27.2890   19.8250 O.2    27  GLY27      -0.2717
     32  N         16.7890   28.8810   18.7420 N.am   28  ALA28      -0.1965
     33  CA        17.7380   28.9950   17.6260 C.3    28  ALA28       0.1728
     34  C         18.4070   30.3590   17.6490 C.2    28  ALA28       0.2616
     35  O         17.7260   31.3700   17.6320 O.2    28  ALA28      -0.2715
     36  CB        17.0150   28.8030   16.3060 C.3    28  ALA28       0.0334
     37  N         19.7260   30.3640   17.5860 N.am   29  ASP29      -0.1957
     38  CA        20.4480   31.5970   17.4900 C.3    29  ASP29       0.1840
     39  C         20.2080   32.2970   16.1400 C.2    29  ASP29       0.2622
     40  O         20.1960   33.5300   16.0650 O.2    29  ASP29      -0.2715
     41  CB        21.9470   31.3910   17.6710 C.3    29  ASP29       0.1450
     42  CG        22.4030   30.9350   19.0340 C.2    29  ASP29       0.3671
     43  OD1       21.6080   30.8070   19.9880 O.co2  29  ASP29      -0.2456
     44  OD2       23.6220   30.6810   19.1410 O.co2  29  ASP29      -0.2456
     45  N         20.0850   31.4850   15.1070 N.am   30  ASP30      -0.1971
     46  CA        20.1210   31.8970   13.6920 C.3    30  ASP30       0.1709
     47  C         18.8490   31.4280   13.0080 C.2    30  ASP30       0.2293
     48  O         18.1610   30.5470   13.4700 O.2    30  ASP30      -0.2864
     49  CB        21.3190   31.2440   12.9800 C.3    30  ASP30       0.1436
     50  CG        22.6810   31.4440   13.5870 C.2    30  ASP30       0.3671
     51  OD1       22.9180   32.5130   14.1870 O.co2  30  ASP30      -0.2456
     52  OD2       23.5540   30.5720   13.5610 O.co2  30  ASP30      -0.2456
     53  N         17.2660   29.7000    9.6560 N.3    32  VAL32      -0.1245
     54  CA        17.7060   28.6550    8.7510 C.3    32  VAL32       0.1561
     55  C         16.5300   28.2880    7.8360 C.2    32  VAL32       0.2260
     56  O         15.4810   27.8880    8.3210 O.2    32  VAL32      -0.2867
     57  CB        18.3880   27.3910    9.2840 C.3    32  VAL32       0.0252
     58  CG1       17.5450   26.4810   10.1310 C.3    32  VAL32       0.0019
     59  CG2       18.9010   26.5990    8.0640 C.3    32  VAL32       0.0019
     60  N         29.0010   27.5710    6.6870 N.3    45  LYS45      -0.1245
     61  CA        28.8950   27.4990    8.1390 C.3    45  LYS45       0.1561
     62  C         28.4360   26.1170    8.5160 C.2    45  LYS45       0.2260
     63  O         27.7040   25.5040    7.7340 O.2    45  LYS45      -0.2867
     64  CB        27.8840   28.5970    8.6480 C.3    45  LYS45       0.0271
     65  CG        27.8680   28.8070   10.1540 C.3    45  LYS45       0.0035
     66  CD        26.9100   29.8810   10.6110 C.3    45  LYS45       0.0206
     67  CE        26.8350   30.0830   12.1090 C.3    45  LYS45       0.1093
     68  NZ        27.7970   31.1370   12.4900 N.3    45  LYS45      -0.1314
     69  N         26.1820   24.3250   11.5450 N.3    47  ILE47      -0.1231
     70  CA        25.2820   24.6160   12.6690 C.3    47  ILE47       0.1692
     71  C         24.7920   23.2990   13.2770 C.2    47  ILE47       0.2593
     72  O         24.5680   22.3300   12.5640 O.2    47  ILE47      -0.2718
     73  CB        24.0850   25.4720   12.2350 C.3    47  ILE47       0.0266
     74  CG1       23.2890   24.8520   11.0790 C.3    47  ILE47       0.0019
     75  CG2       24.5690   26.8770   11.9750 C.3    47  ILE47       0.0020
     76  CD1       21.9980   25.5320   10.7340 C.3    47  ILE47       0.0001
     77  N         24.6590   23.2670   14.5810 N.am   48  GLY48      -0.1942
     78  CA        24.3740   22.0500   15.3080 C.3    48  GLY48       0.2014
     79  C         23.2040   22.1870   16.2490 C.2    48  GLY48       0.2639
     80  O         22.7520   23.2510   16.6440 O.2    48  GLY48      -0.2714
     81  N         22.7520   21.0250   16.6480 N.am   49  GLY49      -0.1939
     82  CA        21.6580   20.8730   17.6060 C.3    49  GLY49       0.2014
     83  C         21.4140   19.4180   17.8560 C.2    49  GLY49       0.2638
     84  O         22.3260   18.6180   17.7710 O.2    49  GLY49      -0.2714
     85  N         20.1660   19.0840   18.1520 N.am   50  ILE50      -0.1977
     86  CA        19.8340   17.6520   18.3100 C.3    50  ILE50       0.1596
     87  C         20.1070   16.9380   17.0040 C.2    50  ILE50       0.2287
     88  O         19.7010   17.3540   15.9350 O.2    50  ILE50      -0.2864
     89  CB        18.4260   17.5280   18.8560 C.3    50  ILE50       0.0276
     90  CG1       18.3700   17.9370   20.3720 C.3    50  ILE50       0.0022
     91  CG2       17.8730   16.1190   18.6170 C.3    50  ILE50       0.0022
     92  CD1       17.0340   18.1310   20.9420 C.3    50  ILE50       0.0001
     93  N         25.2440   18.1650   13.3830 N.3    53  PHE53      -0.1241
     94  CA        25.4970   19.3600   12.5770 C.3    53  PHE53       0.1605
     95  C         25.0760   19.1770   11.1230 C.2    53  PHE53       0.2264
     96  O         25.1210   18.0620   10.5770 O.2    53  PHE53      -0.2867
     97  CB        26.9600   19.7700   12.6060 C.3    53  PHE53       0.0534
     98  CG        27.4400   20.3130   13.9460 C.ar   53  PHE53      -0.0203
     99  CD1       27.6930   19.4390   15.0130 C.ar   53  PHE53      -0.0042
    100  CD2       27.6240   21.6740   14.1030 C.ar   53  PHE53      -0.0042
    101  CE1       28.1270   19.9970   16.2120 C.ar   53  PHE53      -0.0003
    102  CE2       28.0420   22.2000   15.3160 C.ar   53  PHE53      -0.0003
    103  CZ        28.2960   21.3440   16.3520 C.ar   53  PHE53      -0.0000
    104  N         20.6630   31.6720    6.9290 N.3    76  LEU76      -0.1245
    105  CA        21.3880   30.4710    6.5670 C.3    76  LEU76       0.1561
    106  C         20.4860   29.5930    5.6960 C.2    76  LEU76       0.2260
    107  O         19.2800   29.4830    5.9700 O.2    76  LEU76      -0.2867
    108  CB        21.7730   29.6960    7.8270 C.3    76  LEU76       0.0270
    109  CG        22.4880   30.5140    8.9110 C.3    76  LEU76       0.0019
    110  CD1       22.8230   29.6420   10.1020 C.3    76  LEU76       0.0001
    111  CD2       23.7040   31.2310    8.3400 C.3    76  LEU76       0.0001
    112  N         12.9670   21.8000    8.7340 N.3    82  VAL82      -0.1245
    113  CA        11.9180   22.7870    8.8970 C.3    82  VAL82       0.1561
    114  C         12.5340   24.1830    8.7450 C.2    82  VAL82       0.2260
    115  O         13.6570   24.4100    9.2310 O.2    82  VAL82      -0.2867
    116  CB        11.0340   22.6430   10.1430 C.3    82  VAL82       0.0252
    117  CG1       10.3270   21.3010   10.1470 C.3    82  VAL82       0.0019
    118  CG2       11.8660   22.8410   11.3800 C.3    82  VAL82       0.0019
    119  N         13.2100   27.7450    9.9510 N.3    84  ILE84      -0.1245
    120  CA        13.3530   28.2360   11.3120 C.3    84  ILE84       0.1561
    121  C         13.6470   29.7190   11.3160 C.2    84  ILE84       0.2260
    122  O         14.5890   30.1640   10.6880 O.2    84  ILE84      -0.2867
    123  CB        14.5130   27.4810   12.0000 C.3    84  ILE84       0.0252
    124  CG1       14.1760   26.0110   12.1970 C.3    84  ILE84       0.0019
    125  CG2       14.9450   28.1500   13.2970 C.3    84  ILE84       0.0019
    126  CD1       15.3630   25.1420   12.4560 C.3    84  ILE84       0.0001
@<TRIPOS>BOND
     1   106   107    2
     2   106   105    1
     3   105   104    1
     4   105   108    1
     5    60    61    1
     6    63    62    2
     7   108   109    1
     8    55    56    2
     9    55    54    1
    10    59    57    1
    11    61    62    1
    12    61    64    1
    13   111   109    1
    14    64    65    1
    15   112   113    1
    16   114   113    1
    17   114   115    2
    18    54    57    1
    19    54    53    1
    20   113   116    1
    21   109   110    1
    22    57    58    1
    23   119   120    1
    24   116   117    1
    25   116   118    1
    26    65    66    1
    27    96    95    2
    28    66    67    1
    29   122   121    2
    30    76    74    1
    31    74    73    1
    32    95    94    1
    33   120   121    1
    34   120   123    1
    35    12    13    1
    36    69    70    1
    37    75    73    1
    38   123   124    1
    39   123   125    1
    40    67    68    1
    41   124   126    1
    42    73    70    1
    43    72    71    2
    44    94    97    1
    45    94    93    1
    46    97    98    1
    47    70    71    1
    48    13    16    1
    49    13    14    1
    50    49    50    1
    51    49    46    1
    52    47    48    2
    53    47    46    1
    54    16    17    1
    55    71    77   am
    56    15    14    2
    57    52    50   ar
    58    50    51   ar
    59    10     9    1
    60    46    45    1
    61    98   100   ar
    62    98    99   ar
    63   100   102   ar
    64    77    78    1
    65    17    19    1
    66    17    18    1
    67     9    11    1
    68     9     8    2
    69    99   101   ar
    70     7     8    1
    71     7     6    1
    72    45    39   am
    73    78    79    1
    74   102   103   ar
    75     4     3    2
    76     5     6    1
    77     5     2    1
    78    88    87    2
    79    40    39    2
    80    39    38    1
    81   101   103   ar
    82    79    80    2
    83    79    81   am
    84    36    33    1
    85    26    25    2
    86     3     2    1
    87    24    25    1
    88    24    21    1
    89    20    21    1
    90    81    82    1
    91     2     1    1
    92    87    86    1
    93    25    27   am
    94    21    22    1
    95    38    37    1
    96    38    41    1
    97    37    34   am
    98    82    83    1
    99    33    34    1
   100    33    32    1
   101    35    34    2
   102    41    42    1
   103    84    83    2
   104    83    85   am
   105    23    22    2
   106    85    86    1
   107    86    89    1
   108    91    89    1
   109    32    30   am
   110    89    90    1
   111    42    44   ar
   112    42    43   ar
   113    30    31    2
   114    30    29    1
   115    90    92    1
   116    28    29    1
