@<TRIPOS>MOLECULE
tmp/3bvjA00.pdb
 176 165 0 0 0
SMALL
GASTEIGER

@<TRIPOS>ATOM
      1  N         31.0100   -7.9990   16.0580 N.3    35  SER35      -0.1217
      2  CA        29.9090   -8.0830   17.0090 C.3    35  SER35       0.1889
      3  C         30.3770   -8.9140   18.1860 C.2    35  SER35       0.2288
      4  O         30.4110  -10.1600   18.1190 O.2    35  SER35      -0.2866
      5  CB        28.6220   -8.6220   16.3770 C.3    35  SER35       0.2089
      6  OG        27.5990   -8.7310   17.3560 O.3    35  SER35      -0.2183
      7  N         29.7150  -10.4790   20.8980 N.3    37  ASP37      -0.1239
      8  CA        28.6250  -11.1170   21.6350 C.3    37  ASP37       0.1674
      9  C         29.1870  -12.1220   22.6440 C.2    37  ASP37       0.2266
     10  O         29.2250  -13.3420   22.3870 O.2    37  ASP37      -0.2867
     11  CB        27.6030  -11.7120   20.6610 C.3    37  ASP37       0.1410
     12  CG        26.9030  -10.6190   19.8570 C.2    37  ASP37       0.3668
     13  OD1       26.8480   -9.4790   20.3860 O.co2  37  ASP37      -0.2456
     14  OD2       26.4960  -10.8690   18.7010 O.co2  37  ASP37      -0.2456
     15  N         31.0650   -3.6440   18.0500 N.3    59  LYS59      -0.1245
     16  CA        29.6710   -3.5480   18.4500 C.3    59  LYS59       0.1561
     17  C         29.4420   -4.3380   19.7230 C.2    59  LYS59       0.2260
     18  O         29.7820   -5.5160   19.7780 O.2    59  LYS59      -0.2867
     19  CB        28.7550   -4.0660   17.3510 C.3    59  LYS59       0.0271
     20  CG        27.2600   -3.9360   17.6640 C.3    59  LYS59       0.0035
     21  CD        26.4060   -4.4820   16.4890 C.3    59  LYS59       0.0206
     22  CE        26.1710   -6.0080   16.5820 C.3    59  LYS59       0.1093
     23  NZ        25.3650   -6.4160   17.7700 N.3    59  LYS59      -0.1314
     24  N         26.7000   -5.4390   23.1050 N.3    61  HIS61      -0.1241
     25  CA        25.4140   -5.5090   23.7890 C.3    61  HIS61       0.1621
     26  C         25.7540   -5.4220   25.2660 C.2    61  HIS61       0.2264
     27  O         25.9540   -6.4370   25.9420 O.2    61  HIS61      -0.2867
     28  CB        24.6860   -6.8360   23.5160 C.3    61  HIS61       0.0745
     29  CG        24.0540   -6.9320   22.1630 C.ar   61  HIS61       0.0817
     30  ND1       23.0470   -6.0900   21.7380 N.ar   61  HIS61      -0.2268
     31  CD2       24.2600   -7.8080   21.1540 C.ar   61  HIS61       0.1154
     32  CE1       22.6830   -6.4240   20.5150 C.ar   61  HIS61       0.1986
     33  NE2       23.4020   -7.4680   20.1380 N.ar   61  HIS61      -0.2212
     34  N         24.6940   -1.6260   20.4500 N.3    90  ASP90      -0.1239
     35  CA        23.5670   -2.1100   19.6600 C.3    90  ASP90       0.1674
     36  C         22.3080   -2.2200   20.5360 C.2    90  ASP90       0.2266
     37  O         21.7750   -3.3210   20.8090 O.2    90  ASP90      -0.2867
     38  CB        23.9340   -3.4670   19.0570 C.3    90  ASP90       0.1410
     39  CG        22.8950   -3.9740   18.0510 C.2    90  ASP90       0.3668
     40  OD1       21.9040   -3.2890   17.6980 O.co2  90  ASP90      -0.2456
     41  OD2       23.0670   -5.1210   17.6040 O.co2  90  ASP90      -0.2456
     42  N         19.2500   -0.7710   20.0380 N.3    92  LYS92      -0.1245
     43  CA        17.9760   -0.8480   19.3330 C.3    92  LYS92       0.1561
     44  C         16.9340   -0.0540   20.1260 C.2    92  LYS92       0.2260
     45  O         15.8870   -0.5650   20.5130 O.2    92  LYS92      -0.2867
     46  CB        17.4980   -2.3030   19.1310 C.3    92  LYS92       0.0271
     47  CG        18.4710   -3.1180   18.2910 C.3    92  LYS92       0.0035
     48  CD        17.8880   -4.4750   17.9360 C.3    92  LYS92       0.0206
     49  CE        18.5900   -5.0670   16.6980 C.3    92  LYS92       0.1093
     50  NZ        20.0620   -5.3010   16.9170 N.3    92  LYS92      -0.1314
     51  N         22.0360    2.5680   17.8380 N.3   119  ASN119     -0.1240
     52  CA        21.0320    2.4080   16.7860 C.3   119  ASN119      0.1653
     53  C         19.5910    2.4740   17.3060 C.2   119  ASN119      0.2266
     54  O         19.3680    2.3170   18.5050 O.2   119  ASN119     -0.2867
     55  CB        21.2830    1.1510   15.9350 C.3   119  ASN119      0.1155
     56  CG        21.2170   -0.1370   16.7410 C.2   119  ASN119      0.2627
     57  OD1       21.1580   -0.1210   17.9630 O.2   119  ASN119     -0.2716
     58  ND2       21.2650   -1.2640   16.0450 N.am  119  ASN119     -0.0877
     59  N         17.5350    1.3750   11.9560 N.3   146  ILE146     -0.1245
     60  CA        17.3620   -0.0020   11.4560 C.3   146  ILE146      0.1561
     61  C         16.3430   -0.0160   10.2980 C.2   146  ILE146      0.2260
     62  O         15.1280    0.0770   10.5010 O.2   146  ILE146     -0.2867
     63  CB        17.0660   -1.0160   12.6100 C.3   146  ILE146      0.0252
     64  CG1       18.2140   -1.0270   13.6460 C.3   146  ILE146      0.0019
     65  CG2       16.7630   -2.4410   12.0340 C.3   146  ILE146      0.0019
     66  CD1       17.8110   -1.4540   15.0850 C.3   146  ILE146      0.0001
     67  N         16.2350   -2.3920    7.6540 N.3   148  GLU148     -0.1231
     68  CA        15.9030   -3.7610    7.2820 C.3   148  GLU148      0.1699
     69  C         16.4820   -4.6340    8.3830 C.2   148  GLU148      0.2592
     70  O         17.3980   -4.2040    9.0970 O.2   148  GLU148     -0.2718
     71  CB        16.5380   -4.1450    5.9330 C.3   148  GLU148      0.0402
     72  CG        16.1170   -3.2750    4.7480 C.3   148  GLU148      0.1161
     73  CD        16.7790   -3.6750    3.4320 C.2   148  GLU148      0.3649
     74  OE1       17.9500   -4.1130    3.4260 O.co2 148  GLU148     -0.2457
     75  OE2       16.1080   -3.5420    2.3950 O.co2 148  GLU148     -0.2457
     76  N         15.9530   -5.8530    8.5130 N.am  149  MET149     -0.1965
     77  CA        16.4960   -6.8450    9.4190 C.3   149  MET149      0.1736
     78  C         16.7620   -8.1640    8.7190 C.2   149  MET149      0.2617
     79  O         16.1040   -8.5030    7.7380 O.2   149  MET149     -0.2715
     80  CB        15.5790   -7.0860   10.6230 C.3   149  MET149      0.0427
     81  CG        15.5000   -5.8750   11.5400 C.3   149  MET149      0.0599
     82  SD        14.6880   -6.2340   13.0850 S.3   149  MET149     -0.1393
     83  CE        16.0460   -6.9970   13.9730 C.3   149  MET149      0.0692
     84  N         17.6910   -8.9260    9.2790 N.am  150  SER150     -0.1936
     85  CA        18.2340  -10.1070    8.5980 C.3   150  SER150      0.2055
     86  C         17.4000  -11.3530    8.8920 C.2   150  SER150      0.2643
     87  O         17.5600  -12.4180    8.2610 O.2   150  SER150     -0.2714
     88  CB        19.6600  -10.3430    9.0890 C.3   150  SER150      0.2130
     89  OG        19.6300  -10.5690   10.4900 O.3   150  SER150     -0.2179
     90  N         16.4860  -11.2100    9.8450 N.am  151  SER151     -0.1949
     91  CA        15.7740  -12.3610   10.3990 C.3   151  SER151      0.1924
     92  C         14.5150  -12.7440    9.6130 C.2   151  SER151      0.2314
     93  O         13.8560  -11.9010    8.9960 O.2   151  SER151     -0.2863
     94  CB        15.4570  -12.1280   11.8910 C.3   151  SER151      0.2116
     95  OG        15.1320  -10.7710   12.1430 O.3   151  SER151     -0.2180
     96  N         21.3860    0.3280    9.6790 N.3   179  ILE179     -0.1245
     97  CA        21.5200   -1.1270    9.6720 C.3   179  ILE179      0.1561
     98  C         20.5770   -1.6230    8.5810 C.2   179  ILE179      0.2260
     99  O         19.3920   -1.2890    8.5910 O.2   179  ILE179     -0.2867
    100  CB        21.2200   -1.7330   11.0620 C.3   179  ILE179      0.0252
    101  CG1       22.0700   -1.0330   12.1340 C.3   179  ILE179      0.0019
    102  CG2       21.5420   -3.2400   11.0780 C.3   179  ILE179      0.0019
    103  CD1       23.5580   -1.1370   11.9350 C.3   179  ILE179      0.0001
    104  N         24.3760   -6.8020    9.1850 N.3   195  PRO195     -0.2102
    105  CA        24.5670   -7.9670   10.0400 C.3   195  PRO195      0.1504
    106  C         23.9810   -9.1890    9.3290 C.2   195  PRO195      0.2576
    107  O         23.4290   -9.0480    8.2190 O.2   195  PRO195     -0.2718
    108  CB        23.7440   -7.5840   11.2800 C.3   195  PRO195      0.0282
    109  CG        22.5540   -6.8690   10.7210 C.3   195  PRO195      0.0208
    110  CD        23.0630   -6.1670    9.4390 C.3   195  PRO195      0.0893
    111  N         24.0640  -10.3700    9.9430 N.am  196  GLY196     -0.1943
    112  CA        23.6210  -11.5870    9.2530 C.3   196  GLY196      0.2014
    113  C         24.6560  -11.9930    8.2070 C.2   196  GLY196      0.2638
    114  O         24.3120  -12.3400    7.0820 O.2   196  GLY196     -0.2714
    115  N         25.9250  -11.9440    8.5880 N.am  197  VAL197     -0.1977
    116  CA        27.0360  -12.2200    7.6670 C.3   197  VAL197      0.1596
    117  C         27.8850  -13.3830    8.1700 C.2   197  VAL197      0.2287
    118  O         28.3110  -13.3990    9.3160 O.2   197  VAL197     -0.2864
    119  CB        27.9330  -10.9710    7.4620 C.3   197  VAL197      0.0276
    120  CG1       29.2680  -11.3210    6.7540 C.3   197  VAL197      0.0022
    121  CG2       27.1830   -9.8930    6.7010 C.3   197  VAL197      0.0022
    122  N         17.6400  -16.1650   12.4860 N.3   208  GLN208     -0.1245
    123  CA        18.7910  -15.5260   11.8100 C.3   208  GLN208      0.1566
    124  C         19.1800  -16.2740   10.5250 C.2   208  GLN208      0.2260
    125  O         19.1310  -17.5050   10.4680 O.2   208  GLN208     -0.2867
    126  CB        19.9840  -15.4310   12.7750 C.3   208  GLN208      0.0367
    127  CG        21.3090  -14.8870   12.2050 C.3   208  GLN208      0.0905
    128  CD        21.2390  -13.4230   11.7830 C.2   208  GLN208      0.2608
    129  OE1       20.4090  -13.0620   10.9470 O.2   208  GLN208     -0.2717
    130  NE2       22.1200  -12.5800   12.3450 N.am  208  GLN208     -0.0878
    131  N         21.9970  -16.0800    6.9710 N.3   210  TYR210     -0.1241
    132  CA        23.3370  -15.5610    6.6780 C.3   210  TYR210      0.1605
    133  C         23.6100  -15.3570    5.1960 C.2   210  TYR210      0.2264
    134  O         23.1050  -16.0990    4.3420 O.2   210  TYR210     -0.2867
    135  CB        24.4220  -16.4440    7.2980 C.3   210  TYR210      0.0534
    136  CG        24.4570  -16.3910    8.8090 C.ar  210  TYR210     -0.0201
    137  CD1       24.0590  -17.4850    9.5600 C.ar  210  TYR210     -0.0009
    138  CD2       24.8620  -15.2380    9.4850 C.ar  210  TYR210     -0.0009
    139  CE1       24.0780  -17.4580   10.9470 C.ar  210  TYR210      0.0417
    140  CE2       24.8730  -15.1930   10.8780 C.ar  210  TYR210      0.0417
    141  CZ        24.4740  -16.3020   11.6010 C.ar  210  TYR210      0.1957
    142  OH        24.4960  -16.3000   12.9860 O.3   210  TYR210     -0.2866
    143  N         28.8520   -6.6830    9.7770 N.3   226  ILE226     -0.1231
    144  CA        28.7680   -6.9350   11.1960 C.3   226  ILE226      0.1692
    145  C         28.7830   -8.4540   11.3690 C.2   226  ILE226      0.2592
    146  O         27.8780   -9.1550   10.9020 O.2   226  ILE226     -0.2718
    147  CB        27.4650   -6.3760   11.8000 C.3   226  ILE226      0.0266
    148  CG1       27.4630   -4.8390   11.6620 C.3   226  ILE226      0.0019
    149  CG2       27.2960   -6.8710   13.2650 C.3   226  ILE226      0.0020
    150  CD1       26.2090   -4.1380   12.2810 C.3   226  ILE226      0.0001
    151  N         29.8210   -8.9190   12.0380 N.am  227  VAL227     -0.1966
    152  CA        30.0610  -10.3610   12.2240 C.3   227  VAL227      0.1727
    153  C         30.2300  -10.7310   13.6950 C.2   227  VAL227      0.2617
    154  O         31.1260  -10.2340   14.3960 O.2   227  VAL227     -0.2715
    155  CB        31.2600  -10.8660   11.3740 C.3   227  VAL227      0.0290
    156  CG1       31.3210  -12.4150   11.3910 C.3   227  VAL227      0.0023
    157  CG2       31.1870  -10.3650    9.9530 C.3   227  VAL227      0.0023
    158  N         29.3550  -11.6310   14.1540 N.am  228  GLY228     -0.1940
    159  CA        29.3460  -12.1420   15.5330 C.3   228  GLY228      0.2014
    160  C         29.9030  -13.5560   15.5610 C.2   228  GLY228      0.2639
    161  O         31.1210  -13.7380   15.6270 O.2   228  GLY228     -0.2714
    162  N         29.0160  -14.5470   15.5150 N.am  229  ARG229     -0.1963
    163  CA        29.4300  -15.9490   15.6910 C.3   229  ARG229      0.1729
    164  C         30.4460  -16.4570   14.6600 C.2   229  ARG229      0.2616
    165  O         31.3100  -17.2620   15.0030 O.2   229  ARG229     -0.2715
    166  CB        28.2170  -16.8790   15.8250 C.3   229  ARG229      0.0348
    167  CG        27.5030  -16.6890   17.1710 C.3   229  ARG229      0.0492
    168  CD        26.0700  -17.1950   17.1510 C.3   229  ARG229      0.2205
    169  NE        25.1370  -16.2760   16.4970 N.pl3 229  ARG229     -0.0865
    170  CZ        23.8510  -16.5480   16.2670 C.cat 229  ARG229      0.5346
    171  NH1       23.0730  -15.6370   15.6930 N.pl3 229  ARG229      0.1354
    172  NH2       23.3270  -17.7190   16.6490 N.pl3 229  ARG229      0.1354
    173  N         30.3480  -16.0030   13.4080 N.am  230  GLY230     -0.1955
    174  CA        31.3990  -16.2850   12.4050 C.3   230  GLY230      0.1869
    175  C         32.8320  -16.0590   12.8840 C.2   230  GLY230      0.2309
    176  O         33.7650  -16.7500   12.4570 O.2   230  GLY230     -0.2863
@<TRIPOS>BOND
     1    75    73   ar
     2    74    73   ar
     3    73    72    1
     4   134   133    2
     5    72    71    1
     6   133   132    1
     7    71    68    1
     8   132   131    1
     9   132   135    1
    10   121   119    1
    11   120   119    1
    12   114   113    2
    13    68    67    1
    14    68    69    1
    15   135   136    1
    16   119   116    1
    17   116   117    1
    18   116   115    1
    19    79    78    2
    20   117   118    2
    21   113   115   am
    22   113   112    1
    23   107   106    2
    24    87    86    2
    25    69    76   am
    26    69    70    2
    27    76    77    1
    28    98    99    2
    29    98    97    1
    30    85    86    1
    31    85    88    1
    32    85    84    1
    33    78    84   am
    34    78    77    1
    35   136   138   ar
    36   136   137   ar
    37    86    90   am
    38    93    92    2
    39    88    89    1
    40   104   110    1
    41   104   105    1
    42   112   111    1
    43   106   111   am
    44   106   105    1
    45    77    80    1
    46   110   109    1
    47   138   140   ar
    48   137   139   ar
    49    92    91    1
    50    97    96    1
    51    97   100    1
    52   143   144    1
    53    90    91    1
    54   157   155    1
    55   105   108    1
    56    61    62    2
    57    61    60    1
    58    91    94    1
    59   125   124    2
    60   124   123    1
    61    80    81    1
    62   109   108    1
    63   140   141   ar
    64   146   145    2
    65   139   141   ar
    66   129   128    2
    67   100   102    1
    68   100   101    1
    69   144   145    1
    70   144   147    1
    71   145   151   am
    72   155   156    1
    73   155   152    1
    74    60    59    1
    75    60    63    1
    76    81    82    1
    77   141   142    1
    78   148   147    1
    79   148   150    1
    80   128   127    1
    81   128   130   am
    82   147   149    1
    83   123   122    1
    84   123   126    1
    85    94    95    1
    86   103   101    1
    87    65    63    1
    88   151   152    1
    89   127   126    1
    90   152   153    1
    91   174   175    1
    92   174   173    1
    93   176   175    2
    94    63    64    1
    95    82    83    1
    96   173   164   am
    97    64    66    1
    98   153   158   am
    99   153   154    2
   100   158   159    1
   101   164   165    2
   102   164   163    1
   103   162   160   am
   104   162   163    1
   105   159   160    1
   106   160   161    2
   107   163   166    1
   108   171   170    1
   109   166   167    1
   110    55    56    1
   111    55    52    1
   112    58    56   am
   113     1     2    1
   114   170   169    2
   115   170   172    1
   116     5     2    1
   117     5     6    1
   118    21    22    1
   119    21    20    1
   120   169   168    1
   121    22    23    1
   122    49    50    1
   123    49    48    1
   124    56    57    2
   125    52    53    1
   126    52    51    1
   127     2     3    1
   128   168   167    1
   129    53    54    2
   130    19    20    1
   131    19    16    1
   132    41    39   ar
   133    40    39   ar
   134    48    47    1
   135    15    16    1
   136    39    38    1
   137     4     3    2
   138    47    46    1
   139    16    17    1
   140    14    12   ar
   141    38    35    1
   142    46    43    1
   143    43    42    1
   144    43    44    1
   145    35    34    1
   146    35    36    1
   147    17    18    2
   148    12    13   ar
   149    12    11    1
   150    44    45    2
   151    33    32   ar
   152    33    31   ar
   153    32    30   ar
   154    36    37    2
   155    11     8    1
   156     7     8    1
   157    31    29   ar
   158     8     9    1
   159    30    29   ar
   160    29    28    1
   161    10     9    2
   162    24    25    1
   163    28    25    1
   164    25    26    1
   165    26    27    2
