@<TRIPOS>MOLECULE
tmp/3bw7A05.pdb
 164 157 0 0 0
SMALL
GASTEIGER

@<TRIPOS>ATOM
      1  N         35.1650    3.8860   11.5930 N.3   137  THR137     -0.1203
      2  CA        35.3440    3.9780   10.1460 C.3   137  THR137      0.1994
      3  C         35.5300    5.4920    9.9810 C.2   137  THR137      0.2618
      4  O         35.1100    6.2540   10.8530 O.2   137  THR137     -0.2717
      5  CB        34.0950    3.5170    9.3450 C.3   137  THR137      0.1784
      6  OG1       32.9170    4.1400    9.8690 O.3   137  THR137     -0.2211
      7  CG2       33.9520    2.0080    9.4000 C.3   137  THR137      0.0376
      8  N         36.1670    5.9320    8.9000 N.am  138  ASP138     -0.1959
      9  CA        36.3870    7.3660    8.6660 C.3   138  ASP138      0.1840
     10  C         35.0820    8.1620    8.5740 C.2   138  ASP138      0.2622
     11  O         35.0420    9.3430    8.9150 O.2   138  ASP138     -0.2715
     12  CB        37.1410    7.6100    7.3490 C.3   138  ASP138      0.1450
     13  CG        38.5240    6.9990    7.3240 C.2   138  ASP138      0.3671
     14  OD1       39.0810    6.6870    8.3960 O.co2 138  ASP138     -0.2456
     15  OD2       39.0670    6.8510    6.2080 O.co2 138  ASP138     -0.2456
     16  N         34.0320    7.5040    8.0920 N.am  139  TYR139     -0.1974
     17  CA        32.7150    8.1130    7.8710 C.3   139  TYR139      0.1639
     18  C         31.6910    7.4240    8.7680 C.2   139  TYR139      0.2290
     19  O         31.6010    6.1950    8.7820 O.2   139  TYR139     -0.2864
     20  CB        32.3580    7.9180    6.3980 C.3   139  TYR139      0.0560
     21  CG        31.0510    8.4930    5.9170 C.ar  139  TYR139     -0.0198
     22  CD1       30.8680    9.8710    5.8000 C.ar  139  TYR139     -0.0009
     23  CD2       30.0240    7.6540    5.4890 C.ar  139  TYR139     -0.0009
     24  CE1       29.6930   10.3970    5.2590 C.ar  139  TYR139      0.0417
     25  CE2       28.8510    8.1650    4.9460 C.ar  139  TYR139      0.0417
     26  CZ        28.6920    9.5320    4.8320 C.ar  139  TYR139      0.1957
     27  OH        27.5350   10.0250    4.2790 O.3   139  TYR139     -0.2866
     28  N         27.2020    5.0770    8.1160 N.3   142  LEU142     -0.1245
     29  CA        27.2300    3.7080    7.5970 C.3   142  LEU142      0.1561
     30  C         26.5480    2.8710    8.6830 C.2   142  LEU142      0.2260
     31  O         26.5630    3.2610    9.8520 O.2   142  LEU142     -0.2867
     32  CB        28.6840    3.2410    7.4270 C.3   142  LEU142      0.0270
     33  CG        29.6290    4.1140    6.5820 C.3   142  LEU142      0.0019
     34  CD1       31.0670    3.6230    6.7140 C.3   142  LEU142      0.0001
     35  CD2       29.1890    4.0770    5.1150 C.3   142  LEU142      0.0001
     36  N         37.3320   -0.3840    9.1770 N.3   153  ILE153     -0.1245
     37  CA        38.6380    0.1150    9.5940 C.3   153  ILE153      0.1561
     38  C         38.7810    1.6330    9.5580 C.2   153  ILE153      0.2260
     39  O         38.0590    2.3350    8.8410 O.2   153  ILE153     -0.2867
     40  CB        39.7720   -0.4650    8.7200 C.3   153  ILE153      0.0252
     41  CG1       39.5760   -0.0320    7.2630 C.3   153  ILE153      0.0019
     42  CG2       39.8050   -1.9920    8.8430 C.3   153  ILE153      0.0019
     43  CD1       40.7390   -0.4060    6.3480 C.3   153  ILE153      0.0001
     44  N         46.6750    7.7160   10.4860 N.3   251  GLU251     -0.1245
     45  CA        46.4060    7.4960    9.0670 C.3   251  GLU251      0.1567
     46  C         47.4620    8.2830    8.2970 C.2   251  GLU251      0.2260
     47  O         48.3740    8.8600    8.8950 O.2   251  GLU251     -0.2867
     48  CB        44.9870    7.9470    8.6660 C.3   251  GLU251      0.0388
     49  CG        43.9060    6.9630    9.1220 C.3   251  GLU251      0.1160
     50  CD        42.5420    7.1680    8.4690 C.2   251  GLU251      0.3649
     51  OE1       41.5750    6.5280    8.9480 O.co2 251  GLU251     -0.2457
     52  OE2       42.4280    7.9440    7.4900 O.co2 251  GLU251     -0.2457
     53  N         34.2240   14.2510   11.1870 N.3   340  ARG340     -0.1231
     54  CA        34.8970   15.1520   10.2540 C.3   340  ARG340      0.1694
     55  C         34.5280   14.9800    8.7770 C.2   340  ARG340      0.2591
     56  O         34.3890   15.9660    8.0490 O.2   340  ARG340     -0.2718
     57  CB        36.4160   15.0080   10.4070 C.3   340  ARG340      0.0321
     58  CG        36.9300   13.6020   10.0990 C.3   340  ARG340      0.0489
     59  CD        38.4090   13.4270   10.4630 C.3   340  ARG340      0.2205
     60  NE        38.8880   12.0910   10.1030 N.pl3 340  ARG340     -0.0865
     61  CZ        38.4790   10.9620   10.6770 C.cat 340  ARG340      0.5346
     62  NH1       37.5820   10.9900   11.6540 N.pl3 340  ARG340      0.1354
     63  NH2       38.9590    9.7950   10.2640 N.pl3 340  ARG340      0.1354
     64  N         34.3660   13.7420    8.3280 N.am  341  VAL341     -0.1980
     65  CA        34.0600   13.5110    6.9200 C.3   341  VAL341      0.1595
     66  C         32.6540   13.9470    6.5100 C.2   341  VAL341      0.2287
     67  O         32.4030   14.2060    5.3350 O.2   341  VAL341     -0.2864
     68  CB        34.2880   12.0290    6.5380 C.3   341  VAL341      0.0276
     69  CG1       34.0160   11.8190    5.0400 C.3   341  VAL341      0.0022
     70  CG2       35.7320   11.6340    6.8580 C.3   341  VAL341      0.0022
     71  N         32.8580   17.2020    4.9470 N.3   344  GLU344     -0.1245
     72  CA        33.4080   17.1460    3.6000 C.3   344  GLU344      0.1567
     73  C         32.2800   16.7790    2.6400 C.2   344  GLU344      0.2260
     74  O         32.2100   17.2800    1.5140 O.2   344  GLU344     -0.2867
     75  CB        34.5160   16.0950    3.5260 C.3   344  GLU344      0.0388
     76  CG        35.5930   16.4120    2.5040 C.3   344  GLU344      0.1160
     77  CD        36.6260   15.3100    2.3840 C.2   344  GLU344      0.3649
     78  OE1       37.0310   14.7600    3.4330 O.co2 344  GLU344     -0.2457
     79  OE2       37.0370   15.0050    1.2430 O.co2 344  GLU344     -0.2457
     80  N         29.4520   15.1320   -4.7770 N.3   354  TRP354     -0.1241
     81  CA        29.3650   13.9950   -3.8670 C.3   354  TRP354      0.1605
     82  C         28.6730   12.8470   -4.5940 C.2   354  TRP354      0.2264
     83  O         29.1890   11.7320   -4.6480 O.2   354  TRP354     -0.2867
     84  CB        28.5790   14.3750   -2.6060 C.3   354  TRP354      0.0550
     85  CG        28.4460   13.2460   -1.6230 C.ar  354  TRP354      0.0003
     86  CD1       27.3140   12.5390   -1.3300 C.ar  354  TRP354      0.0946
     87  CD2       29.4860   12.6960   -0.8020 C.ar  354  TRP354      0.0152
     88  NE1       27.5850   11.5850   -0.3740 N.ar  354  TRP354     -0.2442
     89  CE2       28.9110   11.6600   -0.0340 C.ar  354  TRP354      0.0810
     90  CE3       30.8490   12.9810   -0.6410 C.ar  354  TRP354      0.0012
     91  CZ2       29.6530   10.9060    0.8840 C.ar  354  TRP354      0.0191
     92  CZ3       31.5870   12.2320    0.2720 C.ar  354  TRP354      0.0001
     93  CH2       30.9850   11.2070    1.0220 C.ar  354  TRP354      0.0015
     94  N         36.5230    3.8360   -6.5860 N.3   360  TRP360     -0.1241
     95  CA        37.5040    3.7210   -5.5120 C.3   360  TRP360      0.1605
     96  C         38.3120    2.4300   -5.5770 C.2   360  TRP360      0.2264
     97  O         37.7680    1.3640   -5.8610 O.2   360  TRP360     -0.2867
     98  CB        36.8060    3.7980   -4.1470 C.3   360  TRP360      0.0550
     99  CG        36.2520    5.1520   -3.7920 C.ar  360  TRP360      0.0003
    100  CD1       36.2810    6.2820   -4.5570 C.ar  360  TRP360      0.0946
    101  CD2       35.6350    5.5260   -2.5490 C.ar  360  TRP360      0.0152
    102  NE1       35.7300    7.3380   -3.8650 N.ar  360  TRP360     -0.2442
    103  CE2       35.3270    6.9000   -2.6310 C.ar  360  TRP360      0.0810
    104  CE3       35.3190    4.8300   -1.3730 C.ar  360  TRP360      0.0012
    105  CZ2       34.7190    7.5970   -1.5800 C.ar  360  TRP360      0.0191
    106  CZ3       34.7150    5.5230   -0.3260 C.ar  360  TRP360      0.0001
    107  CH2       34.4220    6.8940   -0.4390 C.ar  360  TRP360      0.0015
    108  N         40.6120    0.0590   -3.2760 N.3   362  ASN362     -0.1240
    109  CA        40.9760   -0.2340   -1.8930 C.3   362  ASN362      0.1653
    110  C         41.6560   -1.5860   -1.7660 C.2   362  ASN362      0.2266
    111  O         41.1480   -2.5920   -2.2580 O.2   362  ASN362     -0.2867
    112  CB        39.7210   -0.2290   -1.0140 C.3   362  ASN362      0.1155
    113  CG        38.9400    1.0690   -1.1180 C.2   362  ASN362      0.2627
    114  OD1       39.3610    2.1020   -0.5980 O.2   362  ASN362     -0.2716
    115  ND2       37.8030    1.0240   -1.8030 N.am  362  ASN362     -0.0877
    116  N         40.6850   11.8960   -1.9000 N.3   390  PRO390     -0.2116
    117  CA        41.8720   11.6070   -1.0930 C.3   390  PRO390      0.1372
    118  C         42.5600   10.2710   -1.3890 C.2   390  PRO390      0.2244
    119  O         41.9190    9.2970   -1.7860 O.2   390  PRO390     -0.2868
    120  CB        41.3330   11.6780    0.3310 C.3   390  PRO390      0.0268
    121  CG        39.9560   11.1270    0.1760 C.3   390  PRO390      0.0207
    122  CD        39.4580   11.7970   -1.0900 C.3   390  PRO390      0.0892
    123  N         44.5400    7.7140    0.6270 N.3   392  ILE392     -0.1245
    124  CA        44.8450    7.3290    2.0010 C.3   392  ILE392      0.1561
    125  C         45.7520    6.1060    2.1140 C.2   392  ILE392      0.2260
    126  O         45.5500    5.1010    1.4280 O.2   392  ILE392     -0.2867
    127  CB        43.5290    7.0740    2.7690 C.3   392  ILE392      0.0252
    128  CG1       42.6050    8.2890    2.6060 C.3   392  ILE392      0.0019
    129  CG2       43.8180    6.8320    4.2400 C.3   392  ILE392      0.0019
    130  CD1       41.1950    8.0790    3.1280 C.3   392  ILE392      0.0001
    131  N         43.7640    3.2410    0.2220 N.3   419  SER419     -0.1217
    132  CA        42.4670    3.6240   -0.3120 C.3   419  SER419      0.1889
    133  C         42.5730    4.8430   -1.2120 C.2   419  SER419      0.2288
    134  O         42.7160    5.9680   -0.7350 O.2   419  SER419     -0.2866
    135  CB        41.4930    3.9030    0.8380 C.3   419  SER419      0.2089
    136  OG        41.0440    2.6940    1.4330 O.3   419  SER419     -0.2183
    137  N         40.6230    7.0030   -3.1960 N.3   421  LEU421     -0.1245
    138  CA        39.2270    7.3890   -3.3380 C.3   421  LEU421      0.1561
    139  C         38.9240    8.3600   -4.4760 C.2   421  LEU421      0.2260
    140  O         38.4940    9.4940   -4.2500 O.2   421  LEU421     -0.2867
    141  CB        38.7430    7.9550   -2.0010 C.3   421  LEU421      0.0270
    142  CG        39.1590    7.0890   -0.7970 C.3   421  LEU421      0.0019
    143  CD1       38.4140    7.5450    0.4500 C.3   421  LEU421      0.0001
    144  CD2       38.8420    5.6230   -1.0720 C.3   421  LEU421      0.0001
    145  N         39.7510   -4.8890   -0.6390 N.3   454  TYR454     -0.1227
    146  CA        38.8120   -4.6380    0.4370 C.3   454  TYR454      0.1736
    147  C         37.6630   -3.8500   -0.1980 C.2   454  TYR454      0.2595
    148  O         37.9000   -2.9790   -1.0380 O.2   454  TYR454     -0.2718
    149  CB        39.4810   -3.8270    1.5580 C.3   454  TYR454      0.0548
    150  CG        38.5620   -3.4850    2.7100 C.ar  454  TYR454     -0.0200
    151  CD1       37.7900   -4.4690    3.3310 C.ar  454  TYR454     -0.0009
    152  CD2       38.4480   -2.1710    3.1700 C.ar  454  TYR454     -0.0009
    153  CE1       36.9190   -4.1540    4.3790 C.ar  454  TYR454      0.0417
    154  CE2       37.5810   -1.8460    4.2190 C.ar  454  TYR454      0.0417
    155  CZ        36.8190   -2.8390    4.8170 C.ar  454  TYR454      0.1957
    156  OH        35.9430   -2.5190    5.8350 O.3   454  TYR454     -0.2866
    157  N         36.4280   -4.1890    0.1700 N.am  455  LEU455     -0.1980
    158  CA        35.2460   -3.5040   -0.3470 C.3   455  LEU455      0.1596
    159  C         35.0050   -3.7230   -1.8420 C.2   455  LEU455      0.2287
    160  O         34.1550   -3.0640   -2.4480 O.2   455  LEU455     -0.2864
    161  CB        35.3490   -2.0020   -0.0600 C.3   455  LEU455      0.0297
    162  CG        35.4610   -1.6070    1.4190 C.3   455  LEU455      0.0022
    163  CD1       35.7590   -0.1120    1.5210 C.3   455  LEU455      0.0001
    164  CD2       34.1730   -1.9550    2.1590 C.3   455  LEU455      0.0001
@<TRIPOS>BOND
     1    94    95    1
     2    97    96    2
     3    96    95    1
     4    95    98    1
     5    80    81    1
     6    83    82    2
     7    82    81    1
     8   100   102   ar
     9   100    99   ar
    10   139   140    2
    11   139   138    1
    12    98    99    1
    13    81    84    1
    14   102   103   ar
    15    99   101   ar
    16   138   137    1
    17   138   141    1
    18   108   109    1
    19   103   101   ar
    20   103   105   ar
    21    84    85    1
    22   101   104   ar
    23   160   159    2
    24   111   110    2
    25   141   142    1
    26   116   117    1
    27   116   122    1
    28   109   110    1
    29   109   112    1
    30   159   158    1
    31   115   113   am
    32   119   118    2
    33    85    86   ar
    34    85    87   ar
    35   105   107   ar
    36   118   117    1
    37   104   106   ar
    38    86    88   ar
    39   133   134    2
    40   133   132    1
    41   113   112    1
    42   113   114    2
    43   117   120    1
    44   122   121    1
    45   144   142    1
    46   148   147    2
    47    87    90   ar
    48    87    89   ar
    49   142   143    1
    50    90    92   ar
    51   145   146    1
    52   107   106   ar
    53    88    89   ar
    54   158   161    1
    55   158   157    1
    56   132   131    1
    57   132   135    1
    58   147   157   am
    59   147   146    1
    60   161   162    1
    61    89    91   ar
    62   121   120    1
    63    92    93   ar
    64   146   149    1
    65   123   124    1
    66   135   136    1
    67    91    93   ar
    68    79    77   ar
    69   162   163    1
    70   162   164    1
    71   126   125    2
    72    74    73    2
    73   149   150    1
    74   124   125    1
    75   124   127    1
    76    77    76    1
    77    77    78   ar
    78    76    75    1
    79   128   127    1
    80   128   130    1
    81    73    72    1
    82   150   152   ar
    83   150   151   ar
    84   127   129    1
    85   152   154   ar
    86   151   153   ar
    87    75    72    1
    88    72    71    1
    89   154   155   ar
    90    27    26    1
    91   153   155   ar
    92   155   156    1
    93    26    25   ar
    94    26    24   ar
    95    25    23   ar
    96    69    68    1
    97    35    33    1
    98    24    22   ar
    99    67    66    2
   100    23    21   ar
   101    22    21   ar
   102    21    20    1
   103    15    13   ar
   104    43    41    1
   105    20    17    1
   106    66    65    1
   107    68    70    1
   108    68    65    1
   109    33    34    1
   110    33    32    1
   111    65    64    1
   112    41    40    1
   113    13    12    1
   114    13    14   ar
   115    12     9    1
   116    32    29    1
   117    52    50   ar
   118    29    28    1
   119    29    30    1
   120    17    16    1
   121    17    18    1
   122    56    55    2
   123    16    10   am
   124    46    47    2
   125    46    45    1
   126    64    55   am
   127    50    51   ar
   128    50    49    1
   129    10     9    1
   130    10    11    2
   131    48    45    1
   132    48    49    1
   133     9     8    1
   134    30    31    2
   135    40    42    1
   136    40    37    1
   137    18    19    2
   138    55    54    1
   139    39    38    2
   140     8     3   am
   141    45    44    1
   142    36    37    1
   143     5     7    1
   144     5     6    1
   145     5     2    1
   146    38    37    1
   147     3     2    1
   148     3     4    2
   149    58    57    1
   150    58    59    1
   151    60    59    1
   152    60    61    2
   153     2     1    1
   154    54    57    1
   155    54    53    1
   156    63    61    1
   157    61    62    1
