@<TRIPOS>MOLECULE
tmp/3bw7A01.pdb
 73 70 0 0 0
SMALL
GASTEIGER

@<TRIPOS>ATOM
      1  N         12.0730   -7.5000   13.7170 N.3    47  THR47      -0.1218
      2  CA        12.8740   -8.6320   13.2630 C.3    47  THR47       0.1862
      3  C         11.9890   -9.8060   12.8390 C.2    47  THR47       0.2287
      4  O         12.4050  -10.6580   12.0520 O.2    47  THR47      -0.2866
      5  CB        13.8500   -9.0950   14.3660 C.3    47  THR47       0.1770
      6  OG1       13.1230   -9.3630   15.5690 O.3    47  THR47      -0.2211
      7  CG2       14.8850   -8.0170   14.6450 C.3    47  THR47       0.0375
      8  N         10.2090    3.3880   20.0810 N.3    98  ALA98      -0.1231
      9  CA        10.3350    2.4320   21.1720 C.3    98  ALA98       0.1679
     10  C          9.9230    1.0400   20.7090 C.2    98  ALA98       0.2434
     11  O          8.9750    0.8890   19.9390 O.2    98  ALA98      -0.2733
     12  CB         9.4720    2.8700   22.3510 C.3    98  ALA98       0.0304
     13  N         10.6330    0.0020   21.1760 N.am   99  PRO99      -0.2718
     14  CA        11.7710    0.1140   22.0930 C.3    99  PRO99       0.1520
     15  C         13.0230    0.6270   21.3850 C.2    99  PRO99       0.2440
     16  O         13.1800    0.4530   20.1750 O.2    99  PRO99      -0.2731
     17  CB        11.9330   -1.3120   22.6040 C.3    99  PRO99       0.0310
     18  CG        11.5680   -2.1230   21.4000 C.3    99  PRO99       0.0237
     19  CD        10.3330   -1.4120   20.8850 C.3    99  PRO99       0.0939
     20  N         13.9330    1.2670   22.1350 N.am  100  PRO100     -0.2716
     21  CA        15.1630    1.7940   21.5400 C.3   100  PRO100      0.1536
     22  C         15.9510    0.7310   20.7790 C.2   100  PRO100      0.2598
     23  O         15.9200   -0.4490   21.1280 O.2   100  PRO100     -0.2715
     24  CB        15.9230    2.3410   22.7490 C.3   100  PRO100      0.0310
     25  CG        15.4450    1.4700   23.8720 C.3   100  PRO100      0.0237
     26  CD        13.9660    1.3950   23.6010 C.3   100  PRO100      0.0939
     27  N         16.6470    1.1590   19.7320 N.am  101  ARG101     -0.1978
     28  CA        17.4430    0.2510   18.9190 C.3   101  ARG101      0.1597
     29  C         18.9150    0.3180   19.3140 C.2   101  ARG101      0.2287
     30  O         19.7580   -0.3420   18.7080 O.2   101  ARG101     -0.2864
     31  CB        17.2770    0.5900   17.4330 C.3   101  ARG101      0.0334
     32  CG        15.8740    0.3200   16.8860 C.3   101  ARG101      0.0492
     33  CD        15.5500   -1.1700   16.9070 C.3   101  ARG101      0.2205
     34  NE        16.4150   -1.9290   16.0080 N.pl3 101  ARG101     -0.0865
     35  CZ        16.5350   -3.2540   16.0170 C.cat 101  ARG101      0.5346
     36  NH1       15.8430   -3.9820   16.8830 N.pl3 101  ARG101      0.1354
     37  NH2       17.3540   -3.8510   15.1630 N.pl3 101  ARG101      0.1354
     38  N         21.1280    0.4050   23.0430 N.3   103  ASN103     -0.1240
     39  CA        21.1440    0.4010   24.5030 C.3   103  ASN103      0.1653
     40  C         22.5470    0.2270   25.0630 C.2   103  ASN103      0.2266
     41  O         23.1750   -0.8140   24.8650 O.2   103  ASN103     -0.2867
     42  CB        20.2890   -0.7380   25.0700 C.3   103  ASN103      0.1155
     43  CG        18.8970   -0.7780   24.4910 C.2   103  ASN103      0.2627
     44  OD1       18.2020    0.2370   24.4470 O.2   103  ASN103     -0.2716
     45  ND2       18.4860   -1.9670   24.0560 N.am  103  ASN103     -0.0877
     46  N         24.6060   -2.1760   22.8110 N.3   112  ASP112     -0.1225
     47  CA        23.8480   -3.0210   21.8960 C.3   112  ASP112      0.1805
     48  C         23.2390   -2.1130   20.8470 C.2   112  ASP112      0.2598
     49  O         22.5870   -1.1250   21.1840 O.2   112  ASP112     -0.2718
     50  CB        22.7180   -3.7640   22.6200 C.3   112  ASP112      0.1424
     51  CG        23.1980   -5.0120   23.3250 C.2   112  ASP112      0.3668
     52  OD1       24.0610   -5.7080   22.7580 O.co2 112  ASP112     -0.2456
     53  OD2       22.7020   -5.3070   24.4350 O.co2 112  ASP112     -0.2456
     54  N         23.4500   -2.4450   19.5780 N.am  113  ALA113     -0.1966
     55  CA        22.9120   -1.6360   18.4960 C.3   113  ALA113      0.1728
     56  C         22.2830   -2.5090   17.4230 C.2   113  ALA113      0.2616
     57  O         22.8200   -3.5600   17.0740 O.2   113  ALA113     -0.2715
     58  CB        24.0220   -0.7790   17.8870 C.3   113  ALA113      0.0334
     59  N         21.1350   -2.0780   16.9130 N.am  114  GLY114     -0.1955
     60  CA        20.4780   -2.8310   15.8620 C.3   114  GLY114      0.1869
     61  C         21.3800   -2.8200   14.6400 C.2   114  GLY114      0.2309
     62  O         22.1160   -1.8580   14.4240 O.2   114  GLY114     -0.2863
     63  N         21.2920   -7.3870   15.5380 N.3   206  ARG206     -0.1245
     64  CA        21.8360   -6.7620   16.7410 C.3   206  ARG206      0.1563
     65  C         23.3090   -7.1090   16.9140 C.2   206  ARG206      0.2260
     66  O         23.7090   -8.2560   16.7390 O.2   206  ARG206     -0.2867
     67  CB        21.0810   -7.2170   17.9980 C.3   206  ARG206      0.0307
     68  CG        21.6880   -6.6760   19.3020 C.3   206  ARG206      0.0489
     69  CD        20.9810   -7.2240   20.5500 C.3   206  ARG206      0.2205
     70  NE        21.1860   -8.6630   20.7130 N.pl3 206  ARG206     -0.0865
     71  CZ        22.1620   -9.2160   21.4280 C.cat 206  ARG206      0.5346
     72  NH1       23.0430   -8.4580   22.0730 N.pl3 206  ARG206      0.1354
     73  NH2       22.2670  -10.5360   21.4850 N.pl3 206  ARG206      0.1354
@<TRIPOS>BOND
     1     4     3    2
     2     3     2    1
     3     2     1    1
     4     2     5    1
     5     5     7    1
     6     5     6    1
     7    62    61    2
     8    61    60    1
     9    37    35    1
    10    63    64    1
    11    60    59    1
    12    34    35    2
    13    34    33    1
    14    35    36    1
    15    66    65    2
    16    64    65    1
    17    64    67    1
    18    32    33    1
    19    32    31    1
    20    59    56   am
    21    57    56    2
    22    56    55    1
    23    31    28    1
    24    58    55    1
    25    67    68    1
    26    55    54    1
    27    30    29    2
    28    28    29    1
    29    28    27    1
    30    68    69    1
    31    54    48   am
    32    27    22   am
    33    11    10    2
    34     8     9    1
    35    16    15    2
    36    69    70    1
    37    10     9    1
    38    10    13   am
    39    70    71    2
    40    22    23    2
    41    22    21    1
    42    48    49    2
    43    48    47    1
    44    19    13    1
    45    19    18    1
    46     9    12    1
    47    13    14    1
    48    15    14    1
    49    15    20   am
    50    18    17    1
    51    71    73    1
    52    71    72    1
    53    21    20    1
    54    21    24    1
    55    47    50    1
    56    47    46    1
    57    14    17    1
    58    20    26    1
    59    50    51    1
    60    24    25    1
    61    52    51   ar
    62    38    39    1
    63    51    53   ar
    64    26    25    1
    65    45    43   am
    66    44    43    2
    67    43    42    1
    68    39    40    1
    69    39    42    1
    70    41    40    2
