@<TRIPOS>MOLECULE
tmp/3bwcB00.pdb
 204 193 0 0 0
SMALL
GASTEIGER

@<TRIPOS>ATOM
      1  N         -9.8180   39.4050   24.4530 N.3    28  GLN28      -0.1245
      2  CA        -9.3870   40.4330   25.4030 C.3    28  GLN28       0.1566
      3  C         -8.2450   41.2770   24.8470 C.2    28  GLN28       0.2260
      4  O         -7.6180   40.9120   23.8530 O.2    28  GLN28      -0.2867
      5  CB        -8.9530   39.7800   26.7220 C.3    28  GLN28       0.0367
      6  CG        -7.6970   38.9170   26.6040 C.3    28  GLN28       0.0905
      7  CD        -7.6640   37.7800   27.6080 C.2    28  GLN28       0.2608
      8  OE1       -7.9550   37.9690   28.7900 O.2    28  GLN28      -0.2717
      9  NE2       -7.3020   36.5880   27.1390 N.am   28  GLN28      -0.0878
     10  N         -3.6780   42.1240   30.8230 N.3    46  LEU46      -0.1245
     11  CA        -4.8650   41.6970   30.0870 C.3    46  LEU46       0.1561
     12  C         -6.0520   42.5740   30.4730 C.2    46  LEU46       0.2260
     13  O         -6.4080   42.6570   31.6480 O.2    46  LEU46      -0.2867
     14  CB        -5.1790   40.2290   30.3830 C.3    46  LEU46       0.0270
     15  CG        -4.1470   39.1960   29.9160 C.3    46  LEU46       0.0019
     16  CD1       -4.5840   37.8000   30.3240 C.3    46  LEU46       0.0001
     17  CD2       -3.9310   39.2630   28.4130 C.3    46  LEU46       0.0001
     18  N         -2.5260   43.9620   35.0810 N.3    50  ILE50      -0.1231
     19  CA        -1.2700   43.2130   35.0680 C.3    50  ILE50       0.1692
     20  C         -1.4970   41.7850   35.5550 C.2    50  ILE50       0.2592
     21  O         -1.9550   41.5740   36.6820 O.2    50  ILE50      -0.2718
     22  CB        -0.2020   43.8810   35.9660 C.3    50  ILE50       0.0266
     23  CG1        0.2470   45.2180   35.3680 C.3    50  ILE50       0.0019
     24  CG2        1.0070   42.9620   36.1450 C.3    50  ILE50       0.0020
     25  CD1        1.1490   46.0250   36.2830 C.3    50  ILE50       0.0001
     26  N         -1.1810   40.8130   34.7000 N.am   51  GLN51      -0.1966
     27  CA        -1.3590   39.3960   35.0290 C.3    51  GLN51       0.1733
     28  C         -0.0340   38.6650   35.2430 C.2    51  GLN51       0.2616
     29  O          0.0200   37.7140   36.0170 O.2    51  GLN51      -0.2715
     30  CB        -2.1740   38.6840   33.9390 C.3    51  GLN51       0.0408
     31  CG        -3.5800   39.2520   33.6960 C.3    51  GLN51       0.0908
     32  CD        -4.5000   39.1900   34.9150 C.2    51  GLN51       0.2608
     33  OE1       -4.1880   38.5570   35.9240 O.2    51  GLN51      -0.2717
     34  NE2       -5.6490   39.8490   34.8170 N.am   51  GLN51      -0.0878
     35  N          1.0230   39.0930   34.5540 N.am   52  VAL52      -0.1977
     36  CA         2.3430   38.4650   34.6810 C.3    52  VAL52       0.1596
     37  C          3.4740   39.4940   34.6290 C.2    52  VAL52       0.2287
     38  O          3.4720   40.3750   33.7750 O.2    52  VAL52      -0.2864
     39  CB         2.5860   37.4250   33.5590 C.3    52  VAL52       0.0276
     40  CG1        3.9120   36.7210   33.7650 C.3    52  VAL52       0.0022
     41  CG2        1.4590   36.4100   33.5130 C.3    52  VAL52       0.0022
     42  N          2.5360   33.4590   42.4810 N.3    60  TYR60      -0.1227
     43  CA         1.1900   33.0300   42.1240 C.3    60  TYR60       0.1736
     44  C          1.1740   31.6320   41.5130 C.2    60  TYR60       0.2595
     45  O          0.2660   30.8460   41.7650 O.2    60  TYR60      -0.2718
     46  CB         0.5930   34.0530   41.1570 C.3    60  TYR60       0.0548
     47  CG        -0.7830   33.7260   40.6430 C.ar   60  TYR60      -0.0200
     48  CD1       -1.9240   34.1420   41.3240 C.ar   60  TYR60      -0.0009
     49  CD2       -0.9440   33.0230   39.4590 C.ar   60  TYR60      -0.0009
     50  CE1       -3.1910   33.8490   40.8390 C.ar   60  TYR60       0.0417
     51  CE2       -2.1910   32.7290   38.9680 C.ar   60  TYR60       0.0417
     52  CZ        -3.3160   33.1430   39.6580 C.ar   60  TYR60       0.1957
     53  OH        -4.5660   32.8410   39.1650 O.3    60  TYR60      -0.2866
     54  N          2.1910   31.3210   40.7210 N.am   61  HIS61      -0.1975
     55  CA         2.2480   30.0420   40.0220 C.3    61  HIS61       0.1656
     56  C          2.6270   28.8880   40.9520 C.2    61  HIS61       0.2291
     57  O          2.0570   27.7980   40.8560 O.2    61  HIS61      -0.2864
     58  CB         3.1960   30.1460   38.8230 C.3    61  HIS61       0.0771
     59  CG         2.7100   31.0920   37.7680 C.ar   61  HIS61       0.0820
     60  ND1        3.5570   31.8690   37.0080 N.ar   61  HIS61      -0.2267
     61  CD2        1.4550   31.3980   37.3620 C.ar   61  HIS61       0.1154
     62  CE1        2.8440   32.6030   36.1710 C.ar   61  HIS61       0.1986
     63  NE2        1.5660   32.3360   36.3660 N.ar   61  HIS61      -0.2212
     64  N         -7.4550   25.2740   33.6810 N.3    81  ILE81      -0.1231
     65  CA        -8.2770   26.1780   32.8870 C.3    81  ILE81       0.1692
     66  C         -7.6470   27.5680   32.9480 C.2    81  ILE81       0.2593
     67  O         -7.4240   28.1140   34.0330 O.2    81  ILE81      -0.2718
     68  CB        -9.7350   26.1880   33.3680 C.3    81  ILE81       0.0266
     69  CG1      -10.3370   24.7860   33.2010 C.3    81  ILE81       0.0019
     70  CG2      -10.5480   27.2180   32.5890 C.3    81  ILE81       0.0020
     71  CD1      -11.7590   24.6500   33.7120 C.3    81  ILE81       0.0001
     72  N         -7.3560   28.1240   31.7740 N.am   82  GLY82      -0.1942
     73  CA        -6.5500   29.3340   31.6650 C.3    82  GLY82       0.2014
     74  C         -5.0800   28.9650   31.7110 C.2    82  GLY82       0.2639
     75  O         -4.6890   27.8990   31.2330 O.2    82  GLY82      -0.2714
     76  N         -4.2650   29.8470   32.2830 N.am   83  GLY83      -0.1939
     77  CA        -2.8310   29.5910   32.4540 C.3    83  GLY83       0.2014
     78  C         -2.0600   29.4580   31.1540 C.2    83  GLY83       0.2639
     79  O         -1.1020   28.6890   31.0710 O.2    83  GLY83      -0.2714
     80  N         -2.4740   30.2190   30.1430 N.am   84  GLY84      -0.1939
     81  CA        -1.8410   30.1820   28.8280 C.3    84  GLY84       0.2014
     82  C         -0.3790   30.5910   28.8450 C.2    84  GLY84       0.2638
     83  O          0.3980   30.1640   27.9900 O.2    84  GLY84      -0.2714
     84  N         -0.0050   31.4220   29.8150 N.am   85  ASP85      -0.1971
     85  CA         1.3940   31.8180   30.0010 C.3    85  ASP85       0.1709
     86  C          2.3110   30.6290   30.3280 C.2    85  ASP85       0.2293
     87  O          3.5120   30.6700   30.0430 O.2    85  ASP85      -0.2864
     88  CB         1.5130   32.8970   31.0820 C.3    85  ASP85       0.1436
     89  CG         0.8510   32.4970   32.3810 C.2    85  ASP85       0.3671
     90  OD1        1.4150   31.6570   33.1140 O.co2  85  ASP85      -0.2456
     91  OD2       -0.2390   33.0280   32.6710 O.co2  85  ASP85      -0.2456
     92  N         -6.2300   24.2150   29.1310 N.3   104  VAL104     -0.1231
     93  CA        -7.2290   24.7820   28.2320 C.3   104  VAL104      0.1692
     94  C         -7.3680   26.2900   28.4540 C.2   104  VAL104      0.2592
     95  O         -7.9590   26.7290   29.4430 O.2   104  VAL104     -0.2718
     96  CB        -8.6030   24.1050   28.4340 C.3   104  VAL104      0.0266
     97  CG1       -9.5860   24.5570   27.3590 C.3   104  VAL104      0.0020
     98  CG2       -8.4530   22.5910   28.4220 C.3   104  VAL104      0.0020
     99  N         -6.8130   27.0710   27.5300 N.am  105  ASP105     -0.1960
    100  CA        -6.9240   28.5270   27.5610 C.3   105  ASP105      0.1840
    101  C         -7.7030   28.9930   26.3310 C.2   105  ASP105      0.2622
    102  O         -7.4810   28.5040   25.2270 O.2   105  ASP105     -0.2715
    103  CB        -5.5330   29.1680   27.5970 C.3   105  ASP105      0.1450
    104  CG        -5.5690   30.6330   28.0170 C.2   105  ASP105      0.3671
    105  OD1       -6.2150   31.4440   27.3210 O.co2 105  ASP105     -0.2456
    106  OD2       -4.9410   30.9760   29.0420 O.co2 105  ASP105     -0.2456
    107  N         -8.6040   29.9500   26.5300 N.am  106  ILE106     -0.1963
    108  CA        -9.5120   30.3980   25.4710 C.3   106  ILE106      0.1727
    109  C         -8.8130   31.2820   24.4380 C.2   106  ILE106      0.2616
    110  O         -9.2530   31.3600   23.2900 O.2   106  ILE106     -0.2715
    111  CB       -10.7380   31.1500   26.0660 C.3   106  ILE106      0.0290
    112  CG1      -11.9040   31.1630   25.0750 C.3   106  ILE106      0.0022
    113  CG2      -10.3620   32.5730   26.4730 C.3   106  ILE106      0.0023
    114  CD1      -13.1890   31.6850   25.6640 C.3   106  ILE106      0.0001
    115  N         -7.7280   31.9380   24.8460 N.am  107  ASP107     -0.1971
    116  CA        -7.0180   32.8790   23.9840 C.3   107  ASP107      0.1709
    117  C         -5.6650   32.3100   23.5640 C.2   107  ASP107      0.2293
    118  O         -4.7280   32.2540   24.3600 O.2   107  ASP107     -0.2864
    119  CB        -6.8420   34.2130   24.7140 C.3   107  ASP107      0.1436
    120  CG        -6.3500   35.3270   23.8060 C.2   107  ASP107      0.3671
    121  OD1       -6.1790   35.1090   22.5910 O.co2 107  ASP107     -0.2456
    122  OD2       -6.1340   36.4400   24.3210 O.co2 107  ASP107     -0.2456
    123  N         -2.4880   34.6640   23.7170 N.3   110  VAL110     -0.1245
    124  CA        -1.8240   34.7810   25.0130 C.3   110  VAL110      0.1561
    125  C         -0.6080   33.8580   25.0910 C.2   110  VAL110      0.2260
    126  O          0.4620   34.2800   25.5350 O.2   110  VAL110     -0.2867
    127  CB        -2.7890   34.4560   26.1800 C.3   110  VAL110      0.0252
    128  CG1       -2.0310   34.3410   27.4970 C.3   110  VAL110      0.0019
    129  CG2       -3.8730   35.5160   26.2800 C.3   110  VAL110      0.0019
    130  N         -9.2600   26.8100   23.7350 N.3   134  GLY134     -0.1210
    131  CA       -10.7190   26.7870   23.7860 C.3   134  GLY134      0.1956
    132  C        -11.2980   27.1980   25.1260 C.2   134  GLY134      0.2612
    133  O        -10.5670   27.3800   26.1020 O.2   134  GLY134     -0.2717
    134  N        -12.6210   27.3430   25.1660 N.am  135  ASP135     -0.1959
    135  CA       -13.3240   27.7250   26.3890 C.3   135  ASP135      0.1840
    136  C        -13.3220   26.5690   27.3930 C.2   135  ASP135      0.2623
    137  O        -13.6330   25.4290   27.0450 O.2   135  ASP135     -0.2715
    138  CB       -14.7640   28.1480   26.0760 C.3   135  ASP135      0.1450
    139  CG       -15.4460   28.8550   27.2460 C.2   135  ASP135      0.3671
    140  OD1      -14.9830   28.7300   28.4000 O.co2 135  ASP135     -0.2456
    141  OD2      -16.4610   29.5410   27.0050 O.co2 135  ASP135     -0.2456
    142  N        -12.9800   26.8860   28.6400 N.am  136  GLY136     -0.1940
    143  CA       -12.9280   25.9060   29.7210 C.3   136  GLY136      0.2014
    144  C        -14.3090   25.4880   30.1910 C.2   136  GLY136      0.2638
    145  O        -14.4870   24.3710   30.6770 O.2   136  GLY136     -0.2714
    146  N        -15.2810   26.3900   30.0600 N.am  137  LEU137     -0.1977
    147  CA       -16.6790   26.0680   30.3320 C.3   137  LEU137      0.1596
    148  C        -17.1320   24.9120   29.4470 C.2   137  LEU137      0.2287
    149  O        -17.6730   23.9200   29.9310 O.2   137  LEU137     -0.2864
    150  CB       -17.5790   27.2830   30.0700 C.3   137  LEU137      0.0297
    151  CG       -17.5310   28.4190   31.0930 C.3   137  LEU137      0.0022
    152  CD1      -18.2020   29.6760   30.5560 C.3   137  LEU137      0.0001
    153  CD2      -18.1840   27.9870   32.3860 C.3   137  LEU137      0.0001
    154  N         -7.1000   28.9480   36.5890 N.3   154  ASP154     -0.1225
    155  CA        -6.1990   30.0940   36.5550 C.3   154  ASP154      0.1805
    156  C         -6.8860   31.2510   35.8220 C.2   154  ASP154      0.2597
    157  O         -6.3870   31.7590   34.8180 O.2   154  ASP154     -0.2718
    158  CB        -4.8830   29.6920   35.8700 C.3   154  ASP154      0.1424
    159  CG        -3.7580   30.6750   36.1250 C.2   154  ASP154      0.3668
    160  OD1       -3.9590   31.6240   36.9100 O.co2 154  ASP154     -0.2456
    161  OD2       -2.6690   30.4970   35.5360 O.co2 154  ASP154     -0.2456
    162  N         -8.0430   31.6540   36.3420 N.am  155  THR155     -0.1979
    163  CA        -8.8610   32.7000   35.7340 C.3   155  THR155      0.1596
    164  C         -9.8420   33.2470   36.7760 C.2   155  THR155      0.2287
    165  O        -11.0400   32.8220   36.7850 O.2   155  THR155     -0.2864
    166  CB        -9.6400   32.1660   34.5080 C.3   155  THR155      0.0297
    167  OG1       -8.3000   31.5530   33.3060 O.3   155  THR155      0.0000
    168  CG2      -10.2360   32.9890   33.3350 C.3   155  THR155      0.0023
    169  N         -8.3180   30.9380   41.5670 N.3   175  GLN175     -0.1245
    170  CA        -7.8270   32.2140   42.0660 C.3   175  GLN175      0.1566
    171  C         -8.9820   32.9670   42.7180 C.2   175  GLN175      0.2260
    172  O        -10.0220   33.1880   42.1000 O.2   175  GLN175     -0.2867
    173  CB        -7.1570   33.0540   40.9680 C.3   175  GLN175      0.0367
    174  CG        -7.9150   33.1820   39.6470 C.3   175  GLN175      0.0905
    175  CD        -7.3260   34.2550   38.7420 C.2   175  GLN175      0.2608
    176  OE1       -6.8080   33.9590   37.6650 O.2   175  GLN175     -0.2717
    177  NE2       -7.3950   35.5070   39.1830 N.am  175  GLN175     -0.0878
    178  N          1.8280   38.9010   46.8560 N.3   206  VAL206     -0.1245
    179  CA         2.1100   39.2020   45.4500 C.3   206  VAL206      0.1561
    180  C          2.1330   40.7200   45.2520 C.2   206  VAL206      0.2260
    181  O          1.0770   41.3560   45.2460 O.2   206  VAL206     -0.2867
    182  CB         1.0560   38.5770   44.5150 C.3   206  VAL206      0.0252
    183  CG1        1.3050   38.9950   43.0680 C.3   206  VAL206      0.0019
    184  CG2        1.0680   37.0630   44.6450 C.3   206  VAL206      0.0019
    185  N         -0.2350   43.1090   42.5290 N.3   209  TYR209     -0.1241
    186  CA        -1.6900   43.2480   42.6360 C.3   209  TYR209      0.1605
    187  C         -2.0280   44.5370   43.3990 C.2   209  TYR209      0.2264
    188  O         -1.3300   44.8730   44.3560 O.2   209  TYR209     -0.2867
    189  CB        -2.2950   42.0260   43.3400 C.3   209  TYR209      0.0534
    190  CG        -3.7640   41.8100   43.0460 C.ar  209  TYR209     -0.0201
    191  CD1       -4.1750   41.2050   41.8600 C.ar  209  TYR209     -0.0009
    192  CD2       -4.7450   42.2150   43.9510 C.ar  209  TYR209     -0.0009
    193  CE1       -5.5240   41.0070   41.5800 C.ar  209  TYR209      0.0417
    194  CE2       -6.0970   42.0200   43.6810 C.ar  209  TYR209      0.0417
    195  CZ        -6.4790   41.4160   42.4940 C.ar  209  TYR209      0.1957
    196  OH        -7.8140   41.2200   42.2210 O.3   209  TYR209     -0.2866
    197  N         -3.3260   38.8360   46.5350 N.3   214  ILE214     -0.1245
    198  CA        -4.4390   38.0740   45.9910 C.3   214  ILE214      0.1561
    199  C         -4.5150   36.7940   46.8280 C.2   214  ILE214      0.2260
    200  O         -3.7150   36.6090   47.7500 O.2   214  ILE214     -0.2867
    201  CB        -4.2210   37.7860   44.4790 C.3   214  ILE214      0.0252
    202  CG1       -5.5480   37.4970   43.7650 C.3   214  ILE214      0.0019
    203  CG2       -3.2250   36.6500   44.2780 C.3   214  ILE214      0.0019
    204  CD1       -5.4770   37.6600   42.2590 C.3   214  ILE214      0.0001
@<TRIPOS>BOND
     1   121   120   ar
     2   110   109    2
     3   117   116    1
     4   117   118    2
     5   123   124    1
     6   130   131    1
     7   131   132    1
     8   120   122   ar
     9   120   119    1
    10     4     3    2
    11   116   119    1
    12   116   115    1
    13   109   115   am
    14   109   108    1
    15     1     2    1
    16     3     2    1
    17   124   125    1
    18   124   127    1
    19   112   114    1
    20   112   111    1
    21   125   126    2
    22   132   134   am
    23   132   133    2
    24   134   135    1
    25   102   101    2
    26     2     5    1
    27   108   111    1
    28   108   107    1
    29   111   113    1
    30   138   135    1
    31   138   139    1
    32   127   129    1
    33   127   128    1
    34   101   107   am
    35   101   100    1
    36   135   136    1
    37     6     5    1
    38     6     7    1
    39   141   139   ar
    40   137   136    2
    41     9     7   am
    42   139   140   ar
    43   105   104   ar
    44    97    96    1
    45   136   142   am
    46    99   100    1
    47    99    94   am
    48   100   103    1
    49   103   104    1
    50     7     8    2
    51    83    82    2
    52   104   106   ar
    53    93    96    1
    54    93    94    1
    55    93    92    1
    56    17    15    1
    57    98    96    1
    58    94    95    2
    59   142   143    1
    60    81    82    1
    61    81    80    1
    62    82    84   am
    63   148   149    2
    64   148   147    1
    65   143   144    1
    66    84    85    1
    67    15    16    1
    68    15    14    1
    69    85    86    1
    70    85    88    1
    71    87    86    2
    72   146   144   am
    73   146   147    1
    74   150   147    1
    75   150   151    1
    76    11    14    1
    77    11    12    1
    78    11    10    1
    79    80    78   am
    80   144   145    2
    81    12    13    2
    82   152   151    1
    83    79    78    2
    84    88    89    1
    85   151   153    1
    86    78    77    1
    87    75    74    2
    88    73    74    1
    89    73    72    1
    90    74    76   am
    91    72    66   am
    92    76    77    1
    93    89    91   ar
    94    89    90   ar
    95    70    68    1
    96    65    66    1
    97    65    68    1
    98    65    64    1
    99    66    67    2
   100    69    68    1
   101    69    71    1
   102   168   166    1
   103    41    39    1
   104    39    40    1
   105    39    36    1
   106    31    30    1
   107    31    32    1
   108    38    37    2
   109    30    27    1
   110   166   163    1
   111    35    36    1
   112    35    28   am
   113    37    36    1
   114    26    27    1
   115    26    20   am
   116    34    32   am
   117   157   156    2
   118    32    33    2
   119    27    28    1
   120    19    18    1
   121    19    20    1
   122    19    22    1
   123    28    29    2
   124    23    22    1
   125    23    25    1
   126   161   159   ar
   127    20    21    2
   128   163   162    1
   129   163   164    1
   130   156   162   am
   131   156   155    1
   132   158   159    1
   133   158   155    1
   134    22    24    1
   135   159   160   ar
   136    62    63   ar
   137    62    60   ar
   138    63    61   ar
   139   155   154    1
   140   164   165    2
   141    60    59   ar
   142    61    59   ar
   143   176   175    2
   144    59    58    1
   145   175   177   am
   146   175   174    1
   147    58    55    1
   148    51    49   ar
   149    51    52   ar
   150    53    52    1
   151    49    47   ar
   152   174   173    1
   153    52    50   ar
   154    55    54    1
   155    55    56    1
   156    47    46    1
   157    47    48   ar
   158    54    44   am
   159    50    48   ar
   160    57    56    2
   161   173   170    1
   162    46    43    1
   163    44    45    2
   164    44    43    1
   165   169   170    1
   166   193   191   ar
   167   193   195   ar
   168   191   190   ar
   169   170   171    1
   170   172   171    2
   171    43    42    1
   172   196   195    1
   173   204   202    1
   174   195   194   ar
   175   185   186    1
   176   186   189    1
   177   186   187    1
   178   190   189    1
   179   190   192   ar
   180   183   182    1
   181   187   188    2
   182   194   192   ar
   183   202   201    1
   184   203   201    1
   185   201   198    1
   186   182   184    1
   187   182   179    1
   188   181   180    2
   189   180   179    1
   190   179   178    1
   191   198   197    1
   192   198   199    1
   193   199   200    2
