@<TRIPOS>MOLECULE
tmp/3bwdA00.pdb
 128 124 0 0 0
SMALL
GASTEIGER

@<TRIPOS>ATOM
      1  N         10.0820    8.5760   18.6420 N.3    11  GLY11      -0.1210
      2  CA        11.4270    8.4270   19.0900 C.3    11  GLY11       0.1956
      3  C         11.7270    7.0210   19.4990 C.2    11  GLY11       0.2612
      4  O         10.9600    6.3840   20.0540 O.2    11  GLY11      -0.2717
      5  N         12.8850    6.5670   19.0830 N.am   12  ALA12      -0.1965
      6  CA        13.4550    5.3330   19.5110 C.3    12  ALA12       0.1728
      7  C         12.8180    4.1250   18.9070 C.2    12  ALA12       0.2616
      8  O         13.0020    3.0610   19.3640 O.2    12  ALA12      -0.2715
      9  CB        13.5170    5.2420   21.0250 C.3    12  ALA12       0.0334
     10  N         12.0370    4.3090   17.8430 N.am   13  VAL13      -0.1963
     11  CA        11.3740    3.1490   17.2730 C.3    13  VAL13       0.1727
     12  C         12.3290    2.3300   16.4070 C.2    13  VAL13       0.2617
     13  O         12.1000    1.1900   16.2020 O.2    13  VAL13      -0.2715
     14  CB        10.0550    3.4090   16.5400 C.3    13  VAL13       0.0290
     15  CG1        8.9510    3.9560   17.5130 C.3    13  VAL13       0.0023
     16  CG2       10.2310    4.2230   15.3850 C.3    13  VAL13       0.0023
     17  N         13.3910    2.9520   15.9760 N.am   14  GLY14      -0.1940
     18  CA        14.3630    2.3040   15.1310 C.3    14  GLY14       0.2014
     19  C         14.5110    2.7920   13.6920 C.2    14  GLY14       0.2639
     20  O         14.8790    2.0810   12.8810 O.2    14  GLY14      -0.2714
     21  N         14.1500    4.0430   13.4590 N.am   15  LYS15      -0.1963
     22  CA        14.2090    4.6260   12.1510 C.3    15  LYS15       0.1728
     23  C         15.6640    4.7480   11.5880 C.2    15  LYS15       0.2617
     24  O         15.8750    4.4260   10.5000 O.2    15  LYS15      -0.2715
     25  CB        13.5510    6.0180   12.0990 C.3    15  LYS15       0.0311
     26  CG        12.1160    6.0880   12.5500 C.3    15  LYS15       0.0038
     27  CD        11.5890    7.5190   12.5110 C.3    15  LYS15       0.0206
     28  CE        12.1780    8.4670   13.5470 C.3    15  LYS15       0.1093
     29  NZ        12.1530    7.9800   14.8710 N.3    15  LYS15      -0.1314
     30  N         16.5990    5.3020   12.3650 N.am   16  THR16      -0.1937
     31  CA        17.9600    5.4910   11.8990 C.3    16  THR16       0.2028
     32  C         18.6180    4.0980   11.7150 C.2    16  THR16       0.2642
     33  O         19.2700    3.8550   10.6770 O.2    16  THR16      -0.2714
     34  CB        18.7300    6.3360   12.8660 C.3    16  THR16       0.1808
     35  OG1       18.0850    7.6200   12.9290 O.3    16  THR16      -0.2208
     36  CG2       20.1670    6.4920   12.3780 C.3    16  THR16       0.0379
     37  N         18.3850    3.2010   12.6670 N.am   17  CYS17      -0.1967
     38  CA        18.8940    1.8160   12.5040 C.3    17  CYS17       0.1712
     39  C         18.3200    1.1210   11.2870 C.2    17  CYS17       0.2296
     40  O         19.0200    0.3630   10.6030 O.2    17  CYS17      -0.2864
     41  CB        18.6000    0.9970   13.7890 C.3    17  CYS17       0.0983
     42  SG        19.8300    1.4820   15.0910 S.3    17  CYS17      -0.0798
     43  N         24.4160   -3.2240   12.1670 N.3    27  PHE27      -0.1228
     44  CA        23.6210   -2.6890   13.2690 C.3    27  PHE27       0.1721
     45  C         24.6290   -2.1160   14.2480 C.2    27  PHE27       0.2437
     46  O         25.5010   -2.8630   14.6920 O.2    27  PHE27      -0.2733
     47  CB        22.7980   -3.8190   13.9080 C.3    27  PHE27       0.0547
     48  CG        21.9380   -3.3830   15.0980 C.ar   27  PHE27      -0.0202
     49  CD1       20.6950   -2.7820   14.8820 C.ar   27  PHE27      -0.0042
     50  CD2       22.3620   -3.6250   16.4070 C.ar   27  PHE27      -0.0042
     51  CE1       19.9030   -2.3790   15.9830 C.ar   27  PHE27      -0.0003
     52  CE2       21.5740   -3.2410   17.5080 C.ar   27  PHE27      -0.0003
     53  CZ        20.3410   -2.6270   17.2770 C.ar   27  PHE27      -0.0000
     54  N         24.4820   -0.8270   14.6390 N.am   28  PRO28      -0.2729
     55  CA        25.4690   -0.2290   15.5620 C.3    28  PRO28       0.1401
     56  C         25.3570   -0.8130   16.9630 C.2    28  PRO28       0.2269
     57  O         24.2460   -1.0080   17.4430 O.2    28  PRO28      -0.2865
     58  CB        25.1290    1.2730   15.5600 C.3    28  PRO28       0.0296
     59  CG        23.9890    1.4670   14.5930 C.3    28  PRO28       0.0237
     60  CD        23.4160    0.1180   14.2310 C.3    28  PRO28       0.0939
     61  N         15.8800   10.5170    6.7040 N.3    39  ASP39      -0.1225
     62  CA        15.6350   10.2270    8.1110 C.3    39  ASP39       0.1805
     63  C         14.9410   11.4940    8.7280 C.2    39  ASP39       0.2598
     64  O         15.0500   12.6160    8.1770 O.2    39  ASP39      -0.2718
     65  CB        16.9870    9.9180    8.7930 C.3    39  ASP39       0.1424
     66  CG        16.8550    9.0900   10.0680 C.2    39  ASP39       0.3668
     67  OD1       15.7310    8.8050   10.5130 O.co2  39  ASP39      -0.2456
     68  OD2       17.9110    8.7500   10.6540 O.co2  39  ASP39      -0.2456
     69  N         14.1660   11.2860    9.7750 N.am   40  THR40      -0.1953
     70  CA        13.5140   12.3880   10.4740 C.3    40  THR40       0.1897
     71  C         13.6440   12.3090   11.9790 C.2    40  THR40       0.2313
     72  O         13.9460   11.3100   12.4980 O.2    40  THR40      -0.2863
     73  CB        12.0040   12.5620   10.0980 C.3    40  THR40       0.1794
     74  OG1       11.2610   11.4630   10.5940 O.3    40  THR40      -0.2208
     75  CG2       11.8210   12.6940    8.6170 C.3    40  THR40       0.0378
     76  N          8.8070   -2.2360   13.8060 N.3    96  THR96      -0.1203
     77  CA        10.2680   -2.4610   14.0110 C.3    96  THR96       0.1994
     78  C         10.5070   -3.3690   15.2290 C.2    96  THR96       0.2617
     79  O          9.5660   -3.6580   16.0030 O.2    96  THR96      -0.2717
     80  CB        10.9770   -1.1410   14.2720 C.3    96  THR96       0.1784
     81  OG1       10.4250   -0.4880   15.4170 O.3    96  THR96      -0.2211
     82  CG2       10.9160   -0.1870   13.0390 C.3    96  THR96       0.0376
     83  N         11.7610   -3.7840   15.4240 N.am   97  LYS97      -0.1979
     84  CA        12.1360   -4.5830   16.6190 C.3    97  LYS97       0.1596
     85  C         11.4790   -5.9590   16.6980 C.2    97  LYS97       0.2287
     86  O         11.1470   -6.4450   17.8100 O.2    97  LYS97      -0.2864
     87  CB        11.9510   -3.7920   17.9150 C.3    97  LYS97       0.0298
     88  CG        12.7020   -2.4730   17.9230 C.3    97  LYS97       0.0038
     89  CD        12.5820   -1.7060   19.1980 C.3    97  LYS97       0.0206
     90  CE        13.4140   -0.4600   19.1110 C.3    97  LYS97       0.1093
     91  NZ        13.3700    0.3920   20.3660 N.3    97  LYS97      -0.1314
     92  N         12.8860   -8.8110   16.4030 N.3    99  ASP99      -0.1225
     93  CA        13.7580   -9.6930   17.2150 C.3    99  ASP99       0.1805
     94  C         13.3420   -9.7190   18.6820 C.2    99  ASP99       0.2597
     95  O         13.4470  -10.7770   19.3300 O.2    99  ASP99      -0.2718
     96  CB        15.2410   -9.3330   17.1320 C.3    99  ASP99       0.1424
     97  CG        15.5370   -7.9010   17.5310 C.2    99  ASP99       0.3668
     98  OD1       15.0310   -6.9920   16.8300 O.co2  99  ASP99      -0.2456
     99  OD2       16.2900   -7.6810   18.5180 O.co2  99  ASP99      -0.2456
    100  N         12.8970   -8.5720   19.1870 N.am  100  LEU100     -0.1979
    101  CA        12.4380   -8.4240   20.5790 C.3   100  LEU100      0.1596
    102  C         11.0850   -9.0390   20.7630 C.2   100  LEU100      0.2287
    103  O         10.8410   -9.6700   21.7770 O.2   100  LEU100     -0.2864
    104  CB        12.4490   -6.9500   21.0620 C.3   100  LEU100      0.0297
    105  CG        13.8290   -6.3040   21.0050 C.3   100  LEU100      0.0022
    106  CD1       13.7800   -4.9280   21.5720 C.3   100  LEU100      0.0001
    107  CD2       14.8670   -7.1530   21.6900 C.3   100  LEU100      0.0001
    108  N         13.4530   -6.3710   11.7420 N.3   135  SER135     -0.1202
    109  CA        14.4220   -6.1420   12.7940 C.3   135  SER135      0.2020
    110  C         15.7270   -5.6650   12.1820 C.2   135  SER135      0.2619
    111  O         16.3150   -6.3760   11.3280 O.2   135  SER135     -0.2717
    112  CB        14.7530   -7.4780   13.4880 C.3   135  SER135      0.2103
    113  OG        15.8200   -7.2350   14.4050 O.3   135  SER135     -0.2182
    114  N         16.1430   -4.4360   12.5150 N.am  136  SER136     -0.1937
    115  CA        17.4810   -3.9490   12.1170 C.3   136  SER136      0.2055
    116  C         18.5670   -4.7240   12.7910 C.2   136  SER136      0.2642
    117  O         19.6820   -4.7880   12.2870 O.2   136  SER136     -0.2714
    118  CB        17.6580   -2.4460   12.4400 C.3   136  SER136      0.2130
    119  OG        16.7520   -1.7490   11.6750 O.3   136  SER136     -0.2179
    120  N         18.2900   -5.2950   13.9440 N.am  137  LYS137     -0.1977
    121  CA        19.3180   -6.0810   14.6540 C.3   137  LYS137      0.1596
    122  C         19.6740   -7.3780   13.9430 C.2   137  LYS137      0.2287
    123  O         20.7880   -7.6550   13.7900 O.2   137  LYS137     -0.2864
    124  CB        18.9480   -6.3380   16.1150 C.3   137  LYS137      0.0298
    125  CG        20.0160   -7.0480   16.9670 C.3   137  LYS137      0.0038
    126  CD        19.7130   -6.9720   18.4160 C.3   137  LYS137      0.0206
    127  CE        20.8120   -7.6450   19.2390 C.3   137  LYS137      0.1093
    128  NZ        21.0360   -7.0560   20.6610 N.3   137  LYS137     -0.1314
@<TRIPOS>BOND
     1    61    62    1
     2    62    63    1
     3    62    65    1
     4    64    63    2
     5    75    73    1
     6    63    69   am
     7    65    66    1
     8    69    70    1
     9    66    67   ar
    10    66    68   ar
    11    73    70    1
    12    73    74    1
    13    70    71    1
    14    24    23    2
    15    40    39    2
    16    33    32    2
    17    39    38    1
    18   111   110    2
    19    23    22    1
    20    23    30   am
    21   119   118    1
    22    32    31    1
    23    32    37   am
    24   108   109    1
    25    31    30    1
    26    31    34    1
    27    71    72    2
    28    25    22    1
    29    25    26    1
    30   115   118    1
    31   115   114    1
    32   115   116    1
    33    22    21    1
    34    43    44    1
    35   110   114   am
    36   110   109    1
    37   117   116    2
    38    36    34    1
    39    38    37    1
    40    38    41    1
    41    27    26    1
    42    27    28    1
    43   116   120   am
    44   109   112    1
    45    34    35    1
    46    20    19    2
    47    82    80    1
    48    44    47    1
    49    44    45    1
    50    21    19   am
    51   112   113    1
    52    28    29    1
    53    19    18    1
    54    41    42    1
    55   123   122    2
    56    76    77    1
    57    47    48    1
    58   122   121    1
    59   120   121    1
    60    77    80    1
    61    77    78    1
    62    60    59    1
    63    60    54    1
    64    45    54   am
    65    45    46    2
    66    80    81    1
    67    59    58    1
    68    54    55    1
    69   121   124    1
    70    49    48   ar
    71    49    51   ar
    72    48    50   ar
    73    18    17    1
    74    78    83   am
    75    78    79    2
    76    16    14    1
    77    83    84    1
    78    58    55    1
    79    55    56    1
    80    17    12   am
    81    51    53   ar
    82   124   125    1
    83    13    12    2
    84    92    93    1
    85    12    11    1
    86    50    52   ar
    87    14    11    1
    88    14    15    1
    89    84    85    1
    90    84    87    1
    91    85    86    2
    92    98    97   ar
    93    56    57    2
    94   125   126    1
    95    96    93    1
    96    96    97    1
    97    93    94    1
    98    11    10    1
    99    53    52   ar
   100    97    99   ar
   101    10     7   am
   102    87    88    1
   103    88    89    1
   104   126   127    1
   105     1     2    1
   106    94   100   am
   107    94    95    2
   108     7     8    2
   109     7     6    1
   110     5     3   am
   111     5     6    1
   112     2     3    1
   113    90    89    1
   114    90    91    1
   115   100   101    1
   116   127   128    1
   117     3     4    2
   118     6     9    1
   119   101   102    1
   120   101   104    1
   121   102   103    2
   122   105   104    1
   123   105   106    1
   124   105   107    1
