@<TRIPOS>MOLECULE
tmp/3bwhA00.pdb
 89 83 0 0 0
SMALL
GASTEIGER

@<TRIPOS>ATOM
      1  N         37.1670   15.9610   45.8410 N.3   206  GLN206     -0.1245
      2  CA        36.0160   15.0930   46.1060 C.3   206  GLN206      0.1566
      3  C         34.7490   15.6060   45.4210 C.2   206  GLN206      0.2260
      4  O         34.4200   16.7850   45.5220 O.2   206  GLN206     -0.2867
      5  CB        35.7720   14.9890   47.6160 C.3   206  GLN206      0.0367
      6  CG        36.8940   14.3070   48.3940 C.3   206  GLN206      0.0905
      7  CD        37.0660   12.8470   48.0150 C.2   206  GLN206      0.2608
      8  OE1       36.0870   12.1260   47.8080 O.2   206  GLN206     -0.2717
      9  NE2       38.3130   12.4040   47.9200 N.am  206  GLN206     -0.0878
     10  N         32.0900    0.5070   33.0770 N.3   215  ASP215     -0.1239
     11  CA        33.4850    0.3260   32.6560 C.3   215  ASP215      0.1674
     12  C         33.5400   -0.5270   31.3760 C.2   215  ASP215      0.2266
     13  O         32.5260   -1.0800   30.9550 O.2   215  ASP215     -0.2867
     14  CB        34.3600   -0.2130   33.8160 C.3   215  ASP215      0.1410
     15  CG        34.2440   -1.7290   34.0450 C.2   215  ASP215      0.3668
     16  OD1       33.6160   -2.4600   33.2600 O.co2 215  ASP215     -0.2456
     17  OD2       34.8330   -2.2070   35.0460 O.co2 215  ASP215     -0.2456
     18  N         34.5170   -3.4680   30.7240 N.3   217  GLN217     -0.1245
     19  CA        34.0810   -4.8550   30.9130 C.3   217  GLN217      0.1566
     20  C         32.5730   -4.9770   31.1940 C.2   217  GLN217      0.2260
     21  O         32.0570   -6.0870   31.3390 O.2   217  GLN217     -0.2867
     22  CB        34.8860   -5.5160   32.0330 C.3   217  GLN217      0.0367
     23  CG        36.3800   -5.5270   31.7810 C.3   217  GLN217      0.0905
     24  CD        37.1240   -6.4560   32.7200 C.2   217  GLN217      0.2608
     25  OE1       37.0310   -7.6790   32.6100 O.2   217  GLN217     -0.2717
     26  NE2       37.8810   -5.8780   33.6450 N.am  217  GLN217     -0.0878
     27  N         30.9950   -3.4370   33.8380 N.3   219  ASN219     -0.1225
     28  CA        30.6960   -3.3370   35.2590 C.3   219  ASN219      0.1785
     29  C         30.2220   -1.9380   35.6410 C.2   219  ASN219      0.2597
     30  O         30.7560   -0.9320   35.1650 O.2   219  ASN219     -0.2718
     31  CB        31.9300   -3.6720   36.1000 C.3   219  ASN219      0.1169
     32  CG        32.5330   -5.0270   35.7610 C.2   219  ASN219      0.2627
     33  OD1       33.7270   -5.1330   35.4540 O.2   219  ASN219     -0.2716
     34  ND2       31.7110   -6.0640   35.8060 N.am  219  ASN219     -0.0877
     35  N         29.2350   -1.8800   36.5310 N.am  220  ARG220     -0.1966
     36  CA        28.8440   -0.6290   37.1560 C.3   220  ARG220      0.1729
     37  C         30.0230   -0.1460   37.9980 C.2   220  ARG220      0.2616
     38  O         30.5800   -0.9190   38.7800 O.2   220  ARG220     -0.2715
     39  CB        27.6270   -0.8760   38.0430 C.3   220  ARG220      0.0348
     40  CG        27.2550    0.2790   38.9500 C.3   220  ARG220      0.0492
     41  CD        26.4050   -0.1770   40.1180 C.3   220  ARG220      0.2205
     42  NE        26.2000    0.9090   41.0660 N.pl3 220  ARG220     -0.0865
     43  CZ        27.0810    1.2900   41.9860 C.cat 220  ARG220      0.5346
     44  NH1       28.2740    0.7050   42.0850 N.pl3 220  ARG220      0.1354
     45  NH2       26.7690    2.2890   42.8030 N.pl3 220  ARG220      0.1354
     46  N         30.4080    1.1190   37.8270 N.am  221  VAL221     -0.1963
     47  CA        31.4430    1.7270   38.6590 C.3   221  VAL221      0.1727
     48  C         30.9910    3.1010   39.1480 C.2   221  VAL221      0.2616
     49  O         30.2890    3.8240   38.4380 O.2   221  VAL221     -0.2715
     50  CB        32.7930    1.8360   37.9110 C.3   221  VAL221      0.0290
     51  CG1       33.3270    0.4420   37.5850 C.3   221  VAL221      0.0023
     52  CG2       32.6560    2.6890   36.6510 C.3   221  VAL221      0.0023
     53  N         31.3910    3.4460   40.3690 N.am  222  GLN222     -0.1977
     54  CA        31.0160    4.7130   40.9830 C.3   222  GLN222      0.1601
     55  C         32.2250    5.6480   41.0330 C.2   222  GLN222      0.2287
     56  O         33.2570    5.3150   41.6270 O.2   222  GLN222     -0.2864
     57  CB        30.4580    4.4750   42.3860 C.3   222  GLN222      0.0394
     58  CG        29.7500    5.6750   42.9800 C.3   222  GLN222      0.0908
     59  CD        29.1970    5.3940   44.3580 C.2   222  GLN222      0.2608
     60  OE1       29.9300    4.9960   45.2610 O.2   222  GLN222     -0.2717
     61  NE2       27.8990    5.6100   44.5310 N.am  222  GLN222     -0.0878
     62  N         33.8110    9.0440   42.3790 N.3   224  THR224     -0.1203
     63  CA        33.6150    9.9320   43.5300 C.3   224  THR224      0.1994
     64  C         34.6910   11.0050   43.7090 C.2   224  THR224      0.2617
     65  O         34.5490   11.8780   44.5690 O.2   224  THR224     -0.2717
     66  CB        33.5500    9.1180   44.8320 C.3   224  THR224      0.1784
     67  OG1       34.7630    8.3720   44.9800 O.3   224  THR224     -0.2211
     68  CG2       32.3520    8.1720   44.8070 C.3   224  THR224      0.0376
     69  N         35.7670   10.9470   42.9310 N.am  225  ASN225     -0.1974
     70  CA        36.8350   11.9410   43.0500 C.3   225  ASN225      0.1688
     71  C         37.6890   12.0260   41.7780 C.2   225  ASN225      0.2292
     72  O         37.5520   11.2010   40.8620 O.2   225  ASN225     -0.2864
     73  CB        37.6950   11.6700   44.2990 C.3   225  ASN225      0.1181
     74  CG        38.4250   10.3530   44.2310 C.2   225  ASN225      0.2629
     75  OD1       39.4040   10.2120   43.5000 O.2   225  ASN225     -0.2716
     76  ND2       37.9580    9.3740   45.0020 N.am  225  ASN225     -0.0877
     77  N         40.7690   11.4360   41.0700 N.3   227  THR227     -0.1203
     78  CA        41.8520   10.4730   40.8200 C.3   227  THR227      0.1994
     79  C         41.4310    9.3530   39.8520 C.2   227  THR227      0.2618
     80  O         42.2740    8.5930   39.3750 O.2   227  THR227     -0.2717
     81  CB        42.4180    9.8470   42.1410 C.3   227  THR227      0.1784
     82  OG1       41.5180    8.8620   42.6620 O.3   227  THR227     -0.2211
     83  CG2       42.6740   10.9210   43.1980 C.3   227  THR227      0.0376
     84  N         40.1310    9.2490   39.5720 N.am  228  SER228     -0.1951
     85  CA        39.6180    8.2330   38.6490 C.3   228  SER228      0.1924
     86  C         40.1150    8.4490   37.2130 C.2   228  SER228      0.2314
     87  O         40.3150    9.5870   36.7670 O.2   228  SER228     -0.2863
     88  CB        38.0830    8.1950   38.6610 C.3   228  SER228      0.2116
     89  OG        37.5920    7.3860   39.7160 O.3   228  SER228     -0.2180
@<TRIPOS>BOND
     1    18    19    1
     2    19    20    1
     3    19    22    1
     4    13    12    2
     5    20    21    2
     6    12    11    1
     7    23    22    1
     8    23    24    1
     9    25    24    2
    10    11    10    1
    11    11    14    1
    12    24    26   am
    13    16    15   ar
    14    14    15    1
    15    27    28    1
    16    15    17   ar
    17    30    29    2
    18    28    29    1
    19    28    31    1
    20    33    32    2
    21    29    35   am
    22    32    34   am
    23    32    31    1
    24    35    36    1
    25    52    50    1
    26    87    86    2
    27    36    37    1
    28    36    39    1
    29    86    85    1
    30    51    50    1
    31    46    37   am
    32    46    47    1
    33    50    47    1
    34    37    38    2
    35    39    40    1
    36    49    48    2
    37    85    88    1
    38    85    84    1
    39    47    48    1
    40    88    89    1
    41    40    41    1
    42    48    53   am
    43    80    79    2
    44    84    79   am
    45    79    78    1
    46    41    42    1
    47    53    54    1
    48    78    77    1
    49    78    81    1
    50    72    71    2
    51    54    55    1
    52    54    57    1
    53    55    56    2
    54    42    43    2
    55    71    70    1
    56    43    44    1
    57    43    45    1
    58    81    82    1
    59    81    83    1
    60    62    63    1
    61    57    58    1
    62    69    70    1
    63    69    64   am
    64    58    59    1
    65    70    73    1
    66    75    74    2
    67    63    64    1
    68    63    66    1
    69    64    65    2
    70    74    73    1
    71    74    76   am
    72    59    61   am
    73    59    60    2
    74    68    66    1
    75    66    67    1
    76     3     4    2
    77     3     2    1
    78     1     2    1
    79     2     5    1
    80     5     6    1
    81     8     7    2
    82     9     7   am
    83     7     6    1
