@<TRIPOS>MOLECULE
tmp/3bwjA01.pdb
 83 83 0 0 0
SMALL
GASTEIGER

@<TRIPOS>ATOM
      1  N         30.7210   34.9800   21.4760 N.3   124  ARG124     -0.1245
      2  CA        31.9140   35.7950   21.5040 C.3   124  ARG124      0.1563
      3  C         31.6060   37.2780   21.4370 C.2   124  ARG124      0.2260
      4  O         32.3080   38.0830   22.0310 O.2   124  ARG124     -0.2867
      5  CB        32.8590   35.4300   20.3550 C.3   124  ARG124      0.0307
      6  CG        33.4820   34.1090   20.5000 C.3   124  ARG124      0.0489
      7  CD        34.3040   33.9790   21.7720 C.3   124  ARG124      0.2205
      8  NE        34.8870   32.6390   21.8260 N.pl3 124  ARG124     -0.0865
      9  CZ        34.3510   31.5970   22.4740 C.cat 124  ARG124      0.5346
     10  NH1       33.2400   31.7170   23.2030 N.pl3 124  ARG124      0.1354
     11  NH2       34.9620   30.4240   22.4380 N.pl3 124  ARG124      0.1354
     12  N         28.7270   38.8310   22.5520 N.3   126  ILE126     -0.1231
     13  CA        28.1420   39.3840   23.7800 C.3   126  ILE126      0.1692
     14  C         28.8230   39.0860   25.1400 C.2   126  ILE126      0.2593
     15  O         28.3420   39.5600   26.1870 O.2   126  ILE126     -0.2718
     16  CB        26.6210   39.1400   23.8610 C.3   126  ILE126      0.0266
     17  CG1       26.2820   37.6820   24.1930 C.3   126  ILE126      0.0019
     18  CG2       25.9140   39.5910   22.5680 C.3   126  ILE126      0.0020
     19  CD1       24.8560   37.5580   24.7330 C.3   126  ILE126      0.0001
     20  N         29.8970   38.2910   25.1500 N.am  127  GLY127     -0.1942
     21  CA        30.5650   37.9500   26.4090 C.3   127  GLY127      0.2014
     22  C         30.1500   36.5850   26.9240 C.2   127  GLY127      0.2639
     23  O         30.8490   35.5960   26.7360 O.2   127  GLY127     -0.2714
     24  N         28.9670   36.5350   27.5090 N.am  128  ARG128     -0.1963
     25  CA        28.3870   35.3160   28.0360 C.3   128  ARG128      0.1729
     26  C         26.8890   35.4230   27.9550 C.2   128  ARG128      0.2616
     27  O         26.3280   36.5170   27.7090 O.2   128  ARG128     -0.2715
     28  CB        28.8050   35.0640   29.4860 C.3   128  ARG128      0.0348
     29  CG        28.5630   36.2200   30.4060 C.3   128  ARG128      0.0492
     30  CD        28.7160   35.8050   31.7980 C.3   128  ARG128      0.2205
     31  NE        28.6180   36.9490   32.6980 N.pl3 128  ARG128     -0.0865
     32  CZ        27.5500   37.2260   33.4270 C.cat 128  ARG128      0.5346
     33  NH1       26.4750   36.4460   33.3550 N.pl3 128  ARG128      0.1354
     34  NH2       27.5540   38.2920   34.2070 N.pl3 128  ARG128      0.1354
     35  N         26.2360   34.2800   28.1400 N.am  129  PHE129     -0.1974
     36  CA        24.7930   34.2240   28.0780 C.3   129  PHE129      0.1639
     37  C         24.4030   34.2420   29.5490 C.2   129  PHE129      0.2290
     38  O         24.9440   33.4800   30.3410 O.2   129  PHE129     -0.2864
     39  CB        24.2830   32.9290   27.3980 C.3   129  PHE129      0.0560
     40  CG        24.5970   32.8110   25.9090 C.ar  129  PHE129     -0.0200
     41  CD1       24.7680   33.9290   25.0980 C.ar  129  PHE129     -0.0042
     42  CD2       24.6890   31.5470   25.3050 C.ar  129  PHE129     -0.0042
     43  CE1       25.0380   33.7930   23.7320 C.ar  129  PHE129     -0.0003
     44  CE2       24.9450   31.4130   23.9320 C.ar  129  PHE129     -0.0003
     45  CZ        25.1250   32.5290   23.1470 C.ar  129  PHE129     -0.0000
     46  N         29.6660   31.1750   31.3740 N.3   222  ALA222     -0.1231
     47  CA        30.9270   31.8590   31.6680 C.3   222  ALA222      0.1694
     48  C         31.4580   32.7090   30.4860 C.2   222  ALA222      0.2593
     49  O         32.0500   33.7840   30.6970 O.2   222  ALA222     -0.2718
     50  CB        31.9900   30.8360   32.1090 C.3   222  ALA222      0.0304
     51  N         31.2590   32.2060   29.2600 N.am  223  GLY223     -0.1942
     52  CA        31.7650   32.8050   28.0100 C.3   223  GLY223      0.2014
     53  C         33.0950   32.2330   27.5060 C.2   223  GLY223      0.2639
     54  O         33.6230   32.6400   26.4680 O.2   223  GLY223     -0.2714
     55  N         33.6520   31.3180   28.2840 N.am  224  TYR224     -0.1960
     56  CA        34.8740   30.5700   27.9210 C.3   224  TYR224      0.1756
     57  C         34.6880   29.1960   28.5430 C.2   224  TYR224      0.2461
     58  O         33.9240   29.0810   29.4850 O.2   224  TYR224     -0.2730
     59  CB        36.1290   31.2730   28.4540 C.3   224  TYR224      0.0574
     60  CG        36.0490   31.5960   29.9010 C.ar  224  TYR224     -0.0198
     61  CD1       36.5600   30.7000   30.8620 C.ar  224  TYR224     -0.0009
     62  CD2       35.4310   32.7910   30.3390 C.ar  224  TYR224     -0.0009
     63  CE1       36.4780   30.9980   32.2160 C.ar  224  TYR224      0.0417
     64  CE2       35.3120   33.0670   31.6590 C.ar  224  TYR224      0.0417
     65  CZ        35.8600   32.1780   32.5880 C.ar  224  TYR224      0.1957
     66  OH        35.7530   32.4650   33.8960 O.3   224  TYR224     -0.2866
     67  N         35.3230   28.1450   27.9740 N.am  225  PRO225     -0.2727
     68  CA        35.1610   26.7630   28.4590 C.3   225  PRO225      0.1402
     69  C         35.9960   26.5180   29.7490 C.2   225  PRO225      0.2269
     70  O         36.9520   27.2770   30.0270 O.2   225  PRO225     -0.2865
     71  CB        35.6340   25.9180   27.2680 C.3   225  PRO225      0.0296
     72  CG        36.7560   26.8190   26.5970 C.3   225  PRO225      0.0237
     73  CD        36.2190   28.2410   26.7870 C.3   225  PRO225      0.0939
     74  N         29.6360   34.5410   39.7500 N.3   249  HIS249     -0.1241
     75  CA        28.2750   34.8140   39.3660 C.3   249  HIS249      0.1621
     76  C         27.3820   33.5560   39.0710 C.2   249  HIS249      0.2264
     77  O         26.1590   33.6730   39.0740 O.2   249  HIS249     -0.2867
     78  CB        28.2570   35.8330   38.2210 C.3   249  HIS249      0.0745
     79  CG        28.8690   35.3390   36.9420 C.ar  249  HIS249      0.0817
     80  ND1       28.2850   34.3550   36.1700 N.ar  249  HIS249     -0.2268
     81  CD2       29.9680   35.7440   36.2600 C.ar  249  HIS249      0.1154
     82  CE1       29.0010   34.1590   35.0820 C.ar  249  HIS249      0.1986
     83  NE2       30.0350   34.9740   35.1140 N.ar  249  HIS249     -0.2212
@<TRIPOS>BOND
     1     5     6    1
     2     5     2    1
     3     6     7    1
     4     3     2    1
     5     3     4    2
     6     1     2    1
     7     7     8    1
     8     8     9    2
     9    11     9    1
    10     9    10    1
    11    12    13    1
    12    18    16    1
    13    45    43   ar
    14    45    44   ar
    15    43    41   ar
    16    13    16    1
    17    13    14    1
    18    16    17    1
    19    44    42   ar
    20    17    19    1
    21    41    40   ar
    22    14    20   am
    23    14    15    2
    24    20    21    1
    25    42    40   ar
    26    40    39    1
    27    21    22    1
    28    54    53    2
    29    72    73    1
    30    72    71    1
    31    23    22    2
    32    73    67    1
    33    22    24   am
    34    71    68    1
    35    39    36    1
    36    53    52    1
    37    53    55   am
    38    24    25    1
    39    27    26    2
    40    56    55    1
    41    56    59    1
    42    56    57    1
    43    26    25    1
    44    26    35   am
    45    67    68    1
    46    67    57   am
    47    52    51    1
    48    25    28    1
    49    36    35    1
    50    36    37    1
    51    59    60    1
    52    68    69    1
    53    57    58    2
    54    51    48   am
    55    28    29    1
    56    37    38    2
    57    69    70    2
    58    60    62   ar
    59    60    61   ar
    60    62    64   ar
    61    29    30    1
    62    48    49    2
    63    48    47    1
    64    61    63   ar
    65    46    47    1
    66    64    65   ar
    67    47    50    1
    68    30    31    1
    69    63    65   ar
    70    65    66    1
    71    31    32    2
    72    33    32    1
    73    32    34    1
    74    82    83   ar
    75    82    80   ar
    76    83    81   ar
    77    80    79   ar
    78    81    79   ar
    79    79    78    1
    80    78    75    1
    81    76    77    2
    82    76    75    1
    83    75    74    1
