@<TRIPOS>MOLECULE
tmp/3bwkB00.pdb
 168 166 0 0 0
SMALL
GASTEIGER

@<TRIPOS>ATOM
      1  N          3.6420  -33.8150   20.8490 N.3    38  GLN38      -0.1196
      2  CA         4.5640  -33.1500   19.9310 C.3    38  GLN38       0.1782
      3  C          4.4020  -31.5960   19.8910 C.2    38  GLN38       0.2306
      4  O          5.2380  -30.8930   19.3260 O.2    38  GLN38      -0.2863
      5  CB         4.5430  -33.8260   18.5550 C.2    38  GLN38       0.0051
      6  CG         3.2920  -33.7780   17.8310 C.2    38  GLN38       0.0584
      7  CD         3.2250  -34.6810   16.5820 C.2    38  GLN38       0.2840
      8  OE1        3.0070  -35.9060   16.6580 O.2    38  GLN38      -0.2667
      9  NE2        3.2910  -34.0440   15.4230 N.am   38  GLN38      -0.0837
     10  N          4.4480  -28.8200   16.0870 N.3    41  CYS41      -0.1221
     11  CA         5.6150  -29.3030   15.3500 C.3    41  CYS41       0.1808
     12  C          5.2620  -30.6130   14.6420 C.2    41  CYS41       0.2601
     13  O          4.6360  -31.4700   15.2310 O.2    41  CYS41      -0.2717
     14  CB         6.7980  -29.4950   16.3180 C.3    41  CYS41       0.0970
     15  SG         8.3320  -30.1750   15.6050 S.3    41  CYS41      -0.0800
     16  N          5.7050  -30.7750   13.4010 N.am   42  GLY42      -0.1957
     17  CA         5.4020  -31.9860   12.5970 C.3    42  GLY42       0.1869
     18  C          6.4030  -33.1160   12.7670 C.2    42  GLY42       0.2309
     19  O          6.8370  -33.7630   11.7900 O.2    42  GLY42      -0.2863
     20  N          5.9120  -35.9800   14.2660 N.3    44  CYS44      -0.1221
     21  CA         5.2970  -37.2880   14.4570 C.3    44  CYS44       0.1808
     22  C          6.1870  -38.4840   14.0950 C.2    44  CYS44       0.2601
     23  O          6.1360  -39.5310   14.7490 O.2    44  CYS44      -0.2717
     24  CB         4.0060  -37.3960   13.6360 C.3    44  CYS44       0.0970
     25  SG         4.1970  -37.2010   11.8760 S.3    44  CYS44      -0.0800
     26  N          6.9530  -38.3390   13.0310 N.am   45  TRP45      -0.1976
     27  CA         7.8700  -39.3700   12.5530 C.3    45  TRP45       0.1640
     28  C          8.9200  -39.7200   13.5910 C.2    45  TRP45       0.2290
     29  O          9.3880  -40.8800   13.6520 O.2    45  TRP45      -0.2864
     30  CB         8.5550  -38.9120   11.2440 C.3    45  TRP45       0.0576
     31  CG         9.2950  -37.6250   11.4020 C.ar   45  TRP45       0.0006
     32  CD1        8.7840  -36.3790   11.2690 C.ar   45  TRP45       0.0946
     33  CD2       10.6660  -37.4620   11.7960 C.ar   45  TRP45       0.0152
     34  NE1        9.7590  -35.4280   11.5380 N.ar   45  TRP45      -0.2442
     35  CE2       10.9190  -36.0730   11.8770 C.ar   45  TRP45       0.0810
     36  CE3       11.6980  -38.3530   12.1180 C.ar   45  TRP45       0.0012
     37  CZ2       12.1630  -35.5570   12.2400 C.ar   45  TRP45       0.0191
     38  CZ3       12.9470  -37.8270   12.4780 C.ar   45  TRP45       0.0001
     39  CH2       13.1660  -36.4450   12.5220 C.ar   45  TRP45       0.0015
     40  N         13.2310  -33.7470    7.9820 N.3    80  ASN80      -0.1240
     41  CA        13.0620  -32.2890    7.8680 C.3    80  ASN80       0.1653
     42  C         12.5470  -31.6470    9.1760 C.2    80  ASN80       0.2266
     43  O         11.7420  -30.7060    9.1310 O.2    80  ASN80      -0.2867
     44  CB        12.1120  -31.9450    6.6990 C.3    80  ASN80       0.1155
     45  CG        12.5120  -32.6270    5.3680 C.2    80  ASN80       0.2627
     46  OD1       13.6030  -32.3900    4.8410 O.2    80  ASN80      -0.2716
     47  ND2       11.6110  -33.4550    4.8120 N.am   80  ASN80      -0.0877
     48  N         10.5610  -30.3190   12.0210 N.3    82  CYS82      -0.1221
     49  CA         9.1340  -30.0550   12.2060 C.3    82  CYS82       0.1808
     50  C          8.3210  -30.0540   10.8930 C.2    82  CYS82       0.2601
     51  O          7.0700  -30.0820   10.9100 O.2    82  CYS82      -0.2717
     52  CB         8.9300  -28.7130   12.9000 C.3    82  CYS82       0.0970
     53  SG         9.3630  -28.6330   14.6890 S.3    82  CYS82      -0.0800
     54  N          9.0270  -30.0200    9.7730 N.am   83  TYR83      -0.1962
     55  CA         8.3880  -30.0620    8.4670 C.3    83  TYR83       0.1771
     56  C          8.0740  -31.4770    7.9850 C.2    83  TYR83       0.2620
     57  O          7.3760  -31.6290    7.0080 O.2    83  TYR83      -0.2715
     58  CB         9.2300  -29.3160    7.4380 C.3    83  TYR83       0.0574
     59  CG         9.3460  -27.8450    7.7480 C.ar   83  TYR83      -0.0198
     60  CD1       10.3370  -27.3750    8.6010 C.ar   83  TYR83      -0.0009
     61  CD2        8.4490  -26.9240    7.2010 C.ar   83  TYR83      -0.0009
     62  CE1       10.4520  -26.0170    8.8950 C.ar   83  TYR83       0.0417
     63  CE2        8.5490  -25.5580    7.4930 C.ar   83  TYR83       0.0417
     64  CZ         9.5560  -25.1100    8.3430 C.ar   83  TYR83       0.1957
     65  OH         9.6710  -23.7710    8.6310 O.3    83  TYR83      -0.2866
     66  N          8.5550  -32.4970    8.6810 N.am   84  GLY84      -0.1940
     67  CA         8.1720  -33.8730    8.4000 C.3    84  GLY84       0.2014
     68  C          9.3420  -34.8050    8.1790 C.2    84  GLY84       0.2639
     69  O         10.4770  -34.3820    8.1520 O.2    84  GLY84      -0.2714
     70  N          9.0370  -36.0800    7.9870 N.am   85  GLY85      -0.1939
     71  CA        10.0410  -37.1100    7.8400 C.3    85  GLY85       0.2014
     72  C          9.4690  -38.4930    7.5870 C.2    85  GLY85       0.2639
     73  O          8.3090  -38.6500    7.2700 O.2    85  GLY85      -0.2714
     74  N         10.3230  -39.4960    7.7130 N.am   86  TYR86      -0.1959
     75  CA        10.0010  -40.8640    7.3320 C.3    86  TYR86       0.1771
     76  C         10.4650  -41.8020    8.4150 C.2    86  TYR86       0.2619
     77  O         11.4660  -41.5460    9.0680 O.2    86  TYR86      -0.2715
     78  CB        10.6880  -41.2240    6.0060 C.3    86  TYR86       0.0574
     79  CG        10.2240  -40.3960    4.8180 C.ar   86  TYR86      -0.0198
     80  CD1       11.0140  -39.3750    4.3000 C.ar   86  TYR86      -0.0009
     81  CD2        9.0010  -40.6360    4.2090 C.ar   86  TYR86      -0.0009
     82  CE1       10.5880  -38.6060    3.1760 C.ar   86  TYR86       0.0417
     83  CE2        8.5750  -39.8860    3.1070 C.ar   86  TYR86       0.0417
     84  CZ         9.3780  -38.8730    2.5940 C.ar   86  TYR86       0.1957
     85  OH         8.9470  -38.1000    1.5150 O.3    86  TYR86      -0.2866
     86  N          9.7280  -42.8790    8.6090 N.am   87  ILE87      -0.1977
     87  CA        10.0650  -43.8910    9.6140 C.3    87  ILE87       0.1596
     88  C         11.4300  -44.5340    9.3060 C.2    87  ILE87       0.2287
     89  O         12.2730  -44.6350   10.1760 O.2    87  ILE87      -0.2864
     90  CB         8.9480  -44.9750    9.7550 C.3    87  ILE87       0.0276
     91  CG1        7.6340  -44.3530   10.2970 C.3    87  ILE87       0.0022
     92  CG2        9.4190  -46.1340   10.6800 C.3    87  ILE87       0.0022
     93  CD1        6.3580  -45.0250    9.7520 C.3    87  ILE87       0.0001
     94  N          2.6960  -45.6890    9.6150 N.3   151  SER151     -0.1217
     95  CA         2.0690  -44.5130    9.0220 C.3   151  SER151      0.1889
     96  C          0.5630  -44.6250    9.1730 C.2   151  SER151      0.2288
     97  O          0.0280  -45.6980    9.4290 O.2   151  SER151     -0.2866
     98  CB         2.4190  -44.3990    7.5400 C.3   151  SER151      0.2089
     99  OG         1.9410  -45.5310    6.8150 O.3   151  SER151     -0.2183
    100  N         -4.3950  -39.5690    8.5170 N.3   154  ALA154     -0.1231
    101  CA        -5.1600  -38.8410    9.5350 C.3   154  ALA154      0.1694
    102  C         -6.0170  -37.7460    8.9250 C.2   154  ALA154      0.2592
    103  O         -5.5630  -37.0080    8.0450 O.2   154  ALA154     -0.2718
    104  CB        -4.2010  -38.2320   10.5540 C.3   154  ALA154      0.0304
    105  N         -7.2540  -37.6500    9.4010 N.am  155  SER155     -0.1952
    106  CA        -8.2130  -36.6350    8.9780 C.3   155  SER155      0.1924
    107  C         -8.3540  -35.5910   10.0700 C.2   155  SER155      0.2314
    108  O         -7.6950  -35.7020   11.1290 O.2   155  SER155     -0.2863
    109  CB        -9.5690  -37.2900    8.7370 C.3   155  SER155      0.2116
    110  OG       -10.0770  -37.8620    9.9310 O.3   155  SER155     -0.2180
    111  N         -8.0360  -35.6640   14.1460 N.3   159  ALA159     -0.1245
    112  CA        -7.4000  -34.5760   14.8980 C.3   159  ALA159      0.1562
    113  C         -8.2170  -34.1930   16.1320 C.2   159  ALA159      0.2260
    114  O         -7.6450  -33.9950   17.2110 O.2   159  ALA159     -0.2867
    115  CB        -7.1800  -33.3820   13.9970 C.3   159  ALA159      0.0290
    116  N         -1.2190  -41.0730    3.4750 N.3   174  PRO174     -0.2102
    117  CA        -0.5360  -41.1480    4.7560 C.3   174  PRO174      0.1504
    118  C          0.1350  -39.8070    5.0240 C.2   174  PRO174      0.2576
    119  O          0.7710  -39.2440    4.1280 O.2   174  PRO174     -0.2718
    120  CB         0.5110  -42.2500    4.5560 C.3   174  PRO174      0.0282
    121  CG         0.0400  -42.9930    3.3690 C.3   174  PRO174      0.0208
    122  CD        -0.6460  -42.0110    2.4980 C.3   174  PRO174      0.0893
    123  N         -0.0670  -39.2970    6.2300 N.am  175  ASN175     -0.1961
    124  CA         0.3740  -37.9600    6.5820 C.3   175  ASN175      0.1819
    125  C          0.8320  -37.8530    8.0520 C.2   175  ASN175      0.2621
    126  O          1.1550  -36.7690    8.5260 O.2   175  ASN175     -0.2715
    127  CB        -0.7470  -36.9620    6.2850 C.3   175  ASN175      0.1195
    128  CG        -2.0150  -37.2510    7.0830 C.2   175  ASN175      0.2630
    129  OD1       -2.0730  -38.1730    7.8770 O.2   175  ASN175     -0.2716
    130  ND2       -3.0340  -36.4500    6.8660 N.am  175  ASN175     -0.0877
    131  N          0.9030  -38.9920    8.7330 N.am  176  HIS176     -0.1959
    132  CA         1.1420  -39.0560   10.1590 C.3   176  HIS176      0.1787
    133  C          1.7690  -40.4310   10.4720 C.2   176  HIS176      0.2620
    134  O          1.7590  -41.3430    9.6520 O.2   176  HIS176     -0.2715
    135  CB        -0.1830  -38.8270   10.9050 C.3   176  HIS176      0.0785
    136  CG        -0.0730  -38.7140   12.3970 C.ar  176  HIS176      0.0821
    137  ND1        1.0360  -38.2070   13.0420 N.ar  176  HIS176     -0.2267
    138  CD2       -0.9850  -38.9690   13.3700 C.ar  176  HIS176      0.1154
    139  CE1        0.8160  -38.1910   14.3480 C.ar  176  HIS176      0.1986
    140  NE2       -0.4050  -38.6410   14.5750 N.ar  176  HIS176     -0.2212
    141  N          2.3900  -40.5050   11.6420 N.am  177  ALA177     -0.1977
    142  CA         3.1180  -41.6450   12.0960 C.3   177  ALA177      0.1597
    143  C          2.7160  -41.8050   13.5520 C.2   177  ALA177      0.2287
    144  O          2.7200  -40.8400   14.3400 O.2   177  ALA177     -0.2864
    145  CB         4.6540  -41.4200   11.9200 C.3   177  ALA177      0.0319
    146  N         -0.1330  -36.7640   20.6350 N.3   208  TRP208     -0.1241
    147  CA        -0.7540  -35.4570   20.8120 C.3   208  TRP208      0.1605
    148  C         -1.2030  -35.2660   22.2540 C.2   208  TRP208      0.2264
    149  O         -2.1800  -34.5860   22.5390 O.2   208  TRP208     -0.2867
    150  CB        -1.9220  -35.3040   19.8460 C.3   208  TRP208      0.0550
    151  CG        -1.5410  -35.3980   18.3960 C.ar  208  TRP208      0.0003
    152  CD1       -0.3170  -35.2190   17.8580 C.ar  208  TRP208      0.0946
    153  CD2       -2.4120  -35.6970   17.2980 C.ar  208  TRP208      0.0152
    154  NE1       -0.3580  -35.3680   16.4860 N.ar  208  TRP208     -0.2442
    155  CE2       -1.6450  -35.6500   16.1220 C.ar  208  TRP208      0.0810
    156  CE3       -3.7690  -35.9940   17.1920 C.ar  208  TRP208      0.0012
    157  CZ2       -2.1940  -35.9070   14.8670 C.ar  208  TRP208      0.0191
    158  CZ3       -4.3020  -36.2560   15.9430 C.ar  208  TRP208      0.0001
    159  CH2       -3.5210  -36.2090   14.8060 C.ar  208  TRP208      0.0015
    160  N          3.2260  -48.0720    5.6400 N.3   236  GLU236     -0.1245
    161  CA         4.6100  -48.2650    6.1080 C.3   236  GLU236      0.1567
    162  C          4.5560  -48.7760    7.5310 C.2   236  GLU236      0.2260
    163  O          3.8200  -48.2430    8.3280 O.2   236  GLU236     -0.2867
    164  CB         5.3930  -46.9660    6.0500 C.3   236  GLU236      0.0388
    165  CG         5.7720  -46.5130    4.6280 C.3   236  GLU236      0.1160
    166  CD         6.8780  -47.3610    3.9750 C.2   236  GLU236      0.3649
    167  OE1        8.0250  -47.4380    4.4880 O.co2 236  GLU236     -0.2457
    168  OE2        6.6060  -47.9280    2.8930 O.co2 236  GLU236     -0.2457
@<TRIPOS>BOND
     1    85    84    1
     2   122   121    1
     3   122   116    1
     4    84    83   ar
     5    84    82   ar
     6   168   166   ar
     7    83    81   ar
     8    82    80   ar
     9   121   120    1
    10   116   117    1
    11   166   167   ar
    12   166   165    1
    13   119   118    2
    14    81    79   ar
    15    80    79   ar
    16   120   117    1
    17   165   164    1
    18   117   118    1
    19    47    45   am
    20    79    78    1
    21    46    45    2
    22   118   123   am
    23    45    44    1
    24   160   161    1
    25    78    75    1
    26   164   161    1
    27   161   162    1
    28   123   124    1
    29   127   124    1
    30   127   128    1
    31   124   125    1
    32    44    41    1
    33    99    98    1
    34   130   128   am
    35    57    56    2
    36   128   129    2
    37    61    63   ar
    38    61    59   ar
    39    73    72    2
    40    75    74    1
    41    75    76    1
    42    58    59    1
    43    58    55    1
    44    63    64   ar
    45   162   163    2
    46    98    95    1
    47    72    74   am
    48    72    71    1
    49    59    60   ar
    50    71    70    1
    51    41    40    1
    52    41    42    1
    53    56    55    1
    54    56    66   am
    55    70    68   am
    56   103   102    2
    57   125   126    2
    58   125   131   am
    59    69    68    2
    60    68    67    1
    61    64    65    1
    62    64    62   ar
    63    67    66    1
    64    76    86   am
    65    76    77    2
    66    55    54    1
    67   100   101    1
    68    60    62   ar
    69    86    87    1
    70   131   132    1
    71   109   106    1
    72   109   110    1
    73   102   105   am
    74   102   101    1
    75   106   105    1
    76   106   107    1
    77    95    96    1
    78    95    94    1
    79    43    42    2
    80    96    97    2
    81    88    87    1
    82    88    89    2
    83   101   104    1
    84    87    90    1
    85   134   133    2
    86    93    91    1
    87    90    91    1
    88    90    92    1
    89    54    50   am
    90   107   108    2
    91   132   133    1
    92   132   135    1
    93   133   141   am
    94    50    51    2
    95    50    49    1
    96   135   136    1
    97    30    31    1
    98    30    27    1
    99    32    31   ar
   100    32    34   ar
   101    31    33   ar
   102    34    35   ar
   103   141   142    1
   104    19    18    2
   105    33    35   ar
   106    33    36   ar
   107    25    24    1
   108    35    37   ar
   109   145   142    1
   110    48    49    1
   111   142   143    1
   112    36    38   ar
   113    49    52    1
   114    37    39   ar
   115   136   137   ar
   116   136   138   ar
   117    38    39   ar
   118    27    26    1
   119    27    28    1
   120    17    18    1
   121    17    16    1
   122    52    53    1
   123    26    22   am
   124   137   139   ar
   125   138   140   ar
   126    16    12   am
   127   143   144    2
   128    28    29    2
   129    24    21    1
   130   115   112    1
   131    22    21    1
   132    22    23    2
   133   111   112    1
   134    20    21    1
   135   139   140   ar
   136    12    13    2
   137    12    11    1
   138    53    15    1
   139   159   157   ar
   140   159   158   ar
   141   157   155   ar
   142   112   113    1
   143    11    10    1
   144    11    14    1
   145     9     7   am
   146    15    14    1
   147   158   156   ar
   148   155   154   ar
   149   155   153   ar
   150   113   114    2
   151   154   152   ar
   152     7     8    2
   153     7     6    1
   154   156   153   ar
   155   153   151   ar
   156     6     5    2
   157   152   151   ar
   158   151   150    1
   159     5     2    1
   160     4     3    2
   161   150   147    1
   162     3     2    1
   163     2     1    1
   164   146   147    1
   165   147   148    1
   166   148   149    2
