@<TRIPOS>MOLECULE
tmp/3bwlA00.pdb
 110 101 0 0 0
SMALL
GASTEIGER

@<TRIPOS>ATOM
      1  N         20.1670    8.1090   22.3770 N.3    30  ASP30      -0.1239
      2  CA        20.9080    9.3130   22.0610 C.3    30  ASP30       0.1674
      3  C         22.3860    8.9650   22.1380 C.2    30  ASP30       0.2266
      4  O         22.7820    7.9780   22.8190 O.2    30  ASP30      -0.2867
      5  CB        20.5630   10.4780   23.0090 C.3    30  ASP30       0.1410
      6  CG        20.9070   10.1840   24.4680 C.2    30  ASP30       0.3668
      7  OD1       20.0500    9.6400   25.2070 O.co2  30  ASP30      -0.2456
      8  OD2       22.0410   10.5640   24.9030 O.co2  30  ASP30      -0.2456
      9  N         26.1030   10.8880   22.8470 N.3    32  LEU32      -0.1245
     10  CA        26.6850   12.0980   23.4690 C.3    32  LEU32       0.1561
     11  C         28.1750   12.1440   23.2220 C.2    32  LEU32       0.2260
     12  O         28.8250   11.1070   23.0530 O.2    32  LEU32      -0.2867
     13  CB        26.4760   12.1170   24.9990 C.3    32  LEU32       0.0270
     14  CG        25.0560   11.9320   25.5220 C.3    32  LEU32       0.0019
     15  CD1       25.1300   12.0290   27.0560 C.3    32  LEU32       0.0001
     16  CD2       24.1120   13.0000   24.8880 C.3    32  LEU32       0.0001
     17  N         22.7260   17.2700   27.3950 N.3    61  ILE61      -0.1245
     18  CA        21.7340   16.3390   27.9640 C.3    61  ILE61       0.1561
     19  C         21.1030   16.8230   29.2830 C.2    61  ILE61       0.2260
     20  O         19.9200   16.4850   29.5840 O.2    61  ILE61      -0.2867
     21  CB        22.3030   14.9010   28.0820 C.3    61  ILE61       0.0252
     22  CG1       21.1910   13.8560   28.3160 C.3    61  ILE61       0.0019
     23  CG2       23.4080   14.8550   29.1750 C.3    61  ILE61       0.0019
     24  CD1       20.2100   13.6580   27.1420 C.3    61  ILE61       0.0001
     25  N         17.2260   16.2570   31.2000 N.3    65  ASP65      -0.1239
     26  CA        17.0980   15.3840   32.3630 C.3    65  ASP65       0.1674
     27  C         17.0630   16.2220   33.6290 C.2    65  ASP65       0.2266
     28  O         18.0600   16.8720   33.9830 O.2    65  ASP65      -0.2867
     29  CB        18.2880   14.4200   32.4340 C.3    65  ASP65       0.1410
     30  CG        18.0260   13.2820   33.4000 C.2    65  ASP65       0.3668
     31  OD1       17.2270   13.4750   34.3700 O.co2  65  ASP65      -0.2456
     32  OD2       18.6010   12.1850   33.2000 O.co2  65  ASP65      -0.2456
     33  N         19.6790   15.7080   36.6510 N.3    67  PHE67      -0.1241
     34  CA        21.1380   15.9570   36.4900 C.3    67  PHE67       0.1605
     35  C         21.3810   17.3800   36.0420 C.2    67  PHE67       0.2264
     36  O         20.8660   17.7960   34.9730 O.2    67  PHE67      -0.2867
     37  CB        21.7660   15.0270   35.4240 C.3    67  PHE67       0.0534
     38  CG        21.8410   13.5900   35.8290 C.ar   67  PHE67      -0.0203
     39  CD1       23.0660   13.0370   36.1830 C.ar   67  PHE67      -0.0042
     40  CD2       20.6930   12.7810   35.8290 C.ar   67  PHE67      -0.0042
     41  CE1       23.1750   11.7180   36.5270 C.ar   67  PHE67      -0.0003
     42  CE2       20.7640   11.4290   36.2030 C.ar   67  PHE67      -0.0003
     43  CZ        22.0250   10.8960   36.5790 C.ar   67  PHE67      -0.0000
     44  N         26.1820   15.6700   35.1410 N.3    72  VAL72      -0.1245
     45  CA        26.4840   14.9930   33.8650 C.3    72  VAL72       0.1561
     46  C         27.9940   14.8440   33.6590 C.2    72  VAL72       0.2260
     47  O         28.4880   13.7460   33.3500 O.2    72  VAL72      -0.2867
     48  CB        25.8230   15.6760   32.6400 C.3    72  VAL72       0.0252
     49  CG1       26.3180   14.9740   31.2760 C.3    72  VAL72       0.0019
     50  CG2       24.2880   15.6750   32.7630 C.3    72  VAL72       0.0019
     51  N         29.3060   12.1760   35.9720 N.3    75  GLN75      -0.1231
     52  CA        28.8800   10.8600   35.4940 C.3    75  GLN75       0.1698
     53  C         29.7550   10.3580   34.3320 C.2    75  GLN75       0.2592
     54  O         30.2720    9.2280   34.3790 O.2    75  GLN75      -0.2718
     55  CB        27.4150   10.9120   35.0280 C.3    75  GLN75       0.0381
     56  CG        26.8030    9.5530   34.6490 C.3    75  GLN75       0.0905
     57  CD        26.4550    8.6980   35.8520 C.2    75  GLN75       0.2608
     58  OE1       27.2460    8.5710   36.7860 O.2    75  GLN75      -0.2717
     59  NE2       25.2600    8.1180   35.8460 N.am   75  GLN75      -0.0878
     60  N         29.8980   11.1850   33.3010 N.am   76  LEU76      -0.1980
     61  CA        30.5960   10.7620   32.0450 C.3    76  LEU76       0.1596
     62  C         32.0970   10.5410   32.2650 C.2    76  LEU76       0.2287
     63  O         32.6670    9.5750   31.7360 O.2    76  LEU76      -0.2864
     64  CB        30.3700   11.7920   30.9470 C.3    76  LEU76       0.0297
     65  CG        28.9300   12.0600   30.5140 C.3    76  LEU76       0.0022
     66  CD1       28.8460   13.1650   29.4110 C.3    76  LEU76       0.0001
     67  CD2       28.2960   10.7330   30.0350 C.3    76  LEU76       0.0001
     68  N         21.2280    3.7030   35.3780 N.3    87  PHE87      -0.1241
     69  CA        20.8620    4.6610   36.4070 C.3    87  PHE87       0.1605
     70  C         19.5720    5.3500   36.0120 C.2    87  PHE87       0.2264
     71  O         19.1930    5.3610   34.8390 O.2    87  PHE87      -0.2867
     72  CB        21.9570    5.7300   36.6060 C.3    87  PHE87       0.0534
     73  CG        22.2830    6.5130   35.3370 C.ar   87  PHE87      -0.0203
     74  CD1       21.6060    7.6930   35.0320 C.ar   87  PHE87      -0.0042
     75  CD2       23.2720    6.0590   34.4620 C.ar   87  PHE87      -0.0042
     76  CE1       21.8980    8.3990   33.8720 C.ar   87  PHE87      -0.0003
     77  CE2       23.5840    6.7580   33.2890 C.ar   87  PHE87      -0.0003
     78  CZ        22.8940    7.9420   32.9960 C.ar   87  PHE87      -0.0000
     79  N         13.2210   12.6680   32.2980 N.3    91  TYR91      -0.1241
     80  CA        13.1390   13.5780   31.1660 C.3    91  TYR91       0.1605
     81  C         11.9550   14.5290   31.2990 C.2    91  TYR91       0.2264
     82  O         10.9130   14.1480   31.8020 O.2    91  TYR91      -0.2867
     83  CB        12.9930   12.8060   29.8490 C.3    91  TYR91       0.0534
     84  CG        14.2530   12.0650   29.4260 C.ar   91  TYR91      -0.0201
     85  CD1       15.4880   12.7280   29.3830 C.ar   91  TYR91      -0.0009
     86  CD2       14.2040   10.7350   29.0160 C.ar   91  TYR91      -0.0009
     87  CE1       16.6350   12.0610   28.9720 C.ar   91  TYR91       0.0417
     88  CE2       15.3530   10.0360   28.5940 C.ar   91  TYR91       0.0417
     89  CZ        16.5660   10.7110   28.6010 C.ar   91  TYR91       0.1957
     90  OH        17.6970   10.0510   28.2100 O.3    91  TYR91      -0.2866
     91  N         18.3010    4.7550   32.2760 N.3   102  VAL102     -0.1245
     92  CA        19.2520    4.9390   31.1930 C.3   102  VAL102      0.1561
     93  C         20.2960    3.8490   31.2730 C.2   102  VAL102      0.2260
     94  O         20.8430    3.5820   32.3690 O.2   102  VAL102     -0.2867
     95  CB        20.0120    6.3090   31.3260 C.3   102  VAL102      0.0252
     96  CG1       20.9100    6.5080   30.1560 C.3   102  VAL102      0.0019
     97  CG2       19.0360    7.4630   31.3970 C.3   102  VAL102      0.0019
     98  N         23.8370    3.3530   29.8530 N.3   104  LEU104     -0.1245
     99  CA        24.7940    4.1790   29.1910 C.3   104  LEU104      0.1561
    100  C         26.1020    3.4180   28.9330 C.2   104  LEU104      0.2260
    101  O         26.5930    2.6840   29.8050 O.2   104  LEU104     -0.2867
    102  CB        25.0730    5.4000   30.0730 C.3   104  LEU104      0.0270
    103  CG        26.0320    6.4890   29.5840 C.3   104  LEU104      0.0019
    104  CD1       25.4160    7.1850   28.3880 C.3   104  LEU104      0.0001
    105  CD2       26.2170    7.5290   30.6740 C.3   104  LEU104      0.0001
    106  N         23.3760    6.0030   24.8050 N.3   117  ALA117     -0.1245
    107  CA        22.4030    5.9170   25.8970 C.3   117  ALA117      0.1562
    108  C         21.0900    5.3610   25.3870 C.2   117  ALA117      0.2260
    109  O         20.5140    5.8760   24.4610 O.2   117  ALA117     -0.2867
    110  CB        22.1800    7.2800   26.5360 C.3   117  ALA117      0.0290
@<TRIPOS>BOND
     1     2     3    1
     2     2     1    1
     3     2     5    1
     4     3     4    2
     5     9    10    1
     6     5     6    1
     7    12    11    2
     8    11    10    1
     9    10    13    1
    10   109   108    2
    11     6     8   ar
    12     6     7   ar
    13   106   107    1
    14    16    14    1
    15    13    14    1
    16   108   107    1
    17    14    15    1
    18   107   110    1
    19    24    22    1
    20    17    18    1
    21    18    21    1
    22    18    19    1
    23    21    22    1
    24    21    23    1
    25    90    89    1
    26   104   103    1
    27    88    89   ar
    28    88    86   ar
    29    89    87   ar
    30   100    99    1
    31   100   101    2
    32    87    85   ar
    33    86    84   ar
    34    99    98    1
    35    99   102    1
    36    19    20    2
    37    85    84   ar
    38    66    65    1
    39    84    83    1
    40   103   102    1
    41   103   105    1
    42    83    80    1
    43    67    65    1
    44    96    95    1
    45    65    64    1
    46    64    61    1
    47    80    81    1
    48    80    79    1
    49    92    93    1
    50    92    95    1
    51    92    91    1
    52    25    26    1
    53    93    94    2
    54    49    48    1
    55    81    82    2
    56    95    97    1
    57    63    62    2
    58    61    62    1
    59    61    60    1
    60    26    29    1
    61    26    27    1
    62    29    30    1
    63    48    50    1
    64    48    45    1
    65    78    77   ar
    66    78    76   ar
    67    32    30   ar
    68    77    75   ar
    69    60    53   am
    70    47    46    2
    71    30    31   ar
    72    27    28    2
    73    46    45    1
    74    45    44    1
    75    76    74   ar
    76    53    54    2
    77    53    52    1
    78    75    73   ar
    79    56    55    1
    80    56    57    1
    81    71    70    2
    82    36    35    2
    83    55    52    1
    84    74    73   ar
    85    73    72    1
    86    68    69    1
    87    37    38    1
    88    37    34    1
    89    52    51    1
    90    38    40   ar
    91    38    39   ar
    92    40    42   ar
    93    59    57   am
    94    57    58    2
    95    70    69    1
    96    35    34    1
    97    39    41   ar
    98    42    43   ar
    99    69    72    1
   100    34    33    1
   101    41    43   ar
