@<TRIPOS>MOLECULE
tmp/3bwmA01.pdb
 109 109 0 0 0
SMALL
GASTEIGER

@<TRIPOS>ATOM
      1  N        -12.5280  -19.7870  -21.0640 N.3    37  TRP37      -0.1241
      2  CA       -11.6070  -19.0690  -20.2080 C.3    37  TRP37       0.1605
      3  C        -11.7070  -17.5320  -20.4100 C.2    37  TRP37       0.2264
      4  O        -11.8980  -17.0350  -21.5270 O.2    37  TRP37      -0.2867
      5  CB       -10.1780  -19.5600  -20.4900 C.3    37  TRP37       0.0550
      6  CG        -9.1420  -19.0200  -19.5530 C.ar   37  TRP37       0.0003
      7  CD1       -8.6810  -19.6120  -18.4260 C.ar   37  TRP37       0.0946
      8  CD2       -8.4170  -17.7920  -19.6910 C.ar   37  TRP37       0.0152
      9  NE1       -7.7140  -18.8270  -17.8370 N.ar   37  TRP37      -0.2442
     10  CE2       -7.5450  -17.6970  -18.5870 C.ar   37  TRP37       0.0810
     11  CE3       -8.4360  -16.7540  -20.6320 C.ar   37  TRP37       0.0012
     12  CZ2       -6.6880  -16.6080  -18.3960 C.ar   37  TRP37       0.0191
     13  CZ3       -7.5860  -15.6710  -20.4490 C.ar   37  TRP37       0.0001
     14  CH2       -6.7270  -15.6030  -19.3340 C.ar   37  TRP37       0.0015
     15  N        -10.0210  -13.6950  -18.3870 N.3    39  MET39      -0.1245
     16  CA        -8.9300  -13.2390  -17.5430 C.3    39  MET39       0.1570
     17  C         -9.4080  -12.5540  -16.2550 C.2    39  MET39       0.2261
     18  O         -8.7870  -11.5890  -15.7910 O.2    39  MET39      -0.2867
     19  CB        -7.9960  -12.3290  -18.3490 C.3    39  MET39       0.0387
     20  CG        -8.6550  -11.0940  -18.9440 C.3    39  MET39       0.0595
     21  SD        -7.5410  -10.1580  -20.0150 S.3    39  MET39      -0.1393
     22  CE        -8.6740   -8.9220  -20.5820 C.3    39  MET39       0.0692
     23  N         -4.2740   -4.9560  -12.1040 N.3   140  ASP140     -0.1225
     24  CA        -4.6050   -6.1390  -12.9080 C.3   140  ASP140      0.1805
     25  C         -4.9300   -5.7690  -14.3620 C.2   140  ASP140      0.2598
     26  O         -5.8430   -6.3140  -14.9730 O.2   140  ASP140     -0.2718
     27  CB        -5.7720   -6.8760  -12.2590 C.3   140  ASP140      0.1424
     28  CG        -5.9800   -8.2440  -12.8190 C.2   140  ASP140      0.3668
     29  OD1       -5.0100   -8.8310  -13.3290 O.co2 140  ASP140     -0.2456
     30  OD2       -7.1190   -8.7450  -12.7430 O.co2 140  ASP140     -0.2456
     31  N         -4.1490   -4.8550  -14.9120 N.am  141  HIS141     -0.1961
     32  CA        -4.3200   -4.3920  -16.2840 C.3   141  HIS141      0.1787
     33  C         -3.1380   -4.9440  -17.0840 C.2   141  HIS141      0.2620
     34  O         -2.5900   -5.9610  -16.6820 O.2   141  HIS141     -0.2715
     35  CB        -4.5220   -2.8570  -16.3470 C.3   141  HIS141      0.0785
     36  CG        -3.4770   -2.0420  -15.6440 C.ar  141  HIS141      0.0821
     37  ND1       -2.7850   -2.4820  -14.5320 N.ar  141  HIS141     -0.2267
     38  CD2       -3.0520   -0.7730  -15.8690 C.ar  141  HIS141      0.1154
     39  CE1       -1.9520   -1.5350  -14.1310 C.ar  141  HIS141      0.1986
     40  NE2       -2.0960   -0.4890  -14.9270 N.ar  141  HIS141     -0.2212
     41  N         -2.7540   -4.3420  -18.2080 N.am  142  TRP142     -0.1960
     42  CA        -1.6220   -4.8650  -18.9680 C.3   142  TRP142      0.1771
     43  C         -0.3350   -4.7230  -18.1310 C.2   142  TRP142      0.2619
     44  O         -0.0700   -3.6770  -17.5290 O.2   142  TRP142     -0.2715
     45  CB        -1.4570   -4.1670  -20.3280 C.3   142  TRP142      0.0590
     46  CG        -2.6160   -4.2880  -21.3610 C.ar  142  TRP142      0.0006
     47  CD1       -2.8290   -3.4480  -22.4250 C.ar  142  TRP142      0.0946
     48  CD2       -3.6740   -5.2800  -21.4270 C.ar  142  TRP142      0.0152
     49  NE1       -3.9390   -3.8400  -23.1320 N.ar  142  TRP142     -0.2442
     50  CE2       -4.4740   -4.9610  -22.5530 C.ar  142  TRP142      0.0810
     51  CE3       -4.0380   -6.3790  -20.6330 C.ar  142  TRP142      0.0012
     52  CZ2       -5.6120   -5.7100  -22.9150 C.ar  142  TRP142      0.0191
     53  CZ3       -5.1630   -7.1500  -21.0120 C.ar  142  TRP142      0.0001
     54  CH2       -5.9400   -6.7960  -22.1370 C.ar  142  TRP142      0.0015
     55  N          0.4580   -5.7890  -18.0970 N.am  143  LYS143     -0.1977
     56  CA         1.5230   -5.9240  -17.1070 C.3   143  LYS143      0.1596
     57  C          2.6560   -4.8960  -17.2770 C.2   143  LYS143      0.2287
     58  O          3.3570   -4.5760  -16.3040 O.2   143  LYS143     -0.2864
     59  CB         2.0590   -7.3630  -17.1090 C.3   143  LYS143      0.0298
     60  CG         0.9500   -8.4570  -17.0480 C.3   143  LYS143      0.0038
     61  CD        -0.1640   -8.1600  -16.0060 C.3   143  LYS143      0.0206
     62  CE        -1.4180   -9.0040  -16.2110 C.3   143  LYS143      0.1093
     63  NZ        -2.6000   -8.5110  -15.3920 N.3   143  LYS143     -0.1314
     64  N         -1.9160   -8.6530   -9.4260 N.3   168  ASP168     -0.1225
     65  CA        -2.1770  -10.0000   -9.9440 C.3   168  ASP168      0.1805
     66  C         -1.1090  -10.3650  -10.9750 C.2   168  ASP168      0.2597
     67  O         -0.4150   -9.4870  -11.4800 O.2   168  ASP168     -0.2718
     68  CB        -3.5630  -10.0620  -10.5850 C.3   168  ASP168      0.1424
     69  CG        -4.0060  -11.4850  -10.8850 C.2   168  ASP168      0.3668
     70  OD1       -3.4900  -12.4270  -10.2570 O.co2 168  ASP168     -0.2456
     71  OD2       -4.8790  -11.6570  -11.7480 O.co2 168  ASP168     -0.2456
     72  N         -0.9650  -11.6620  -11.2450 N.am  169  ASN169     -0.1974
     73  CA        -0.1860  -12.1530  -12.3860 C.3   169  ASN169      0.1688
     74  C          1.2960  -11.8470  -12.3250 C.2   169  ASN169      0.2292
     75  O          1.9220  -11.6350  -13.3660 O.2   169  ASN169     -0.2864
     76  CB        -0.7180  -11.5670  -13.6980 C.3   169  ASN169      0.1181
     77  CG        -2.1610  -11.8060  -13.8890 C.2   169  ASN169      0.2629
     78  OD1       -2.9420  -10.8570  -14.0380 O.2   169  ASN169     -0.2716
     79  ND2       -2.5560  -13.0720  -13.8840 N.am  169  ASN169     -0.0877
     80  N          2.6710  -15.2730  -13.7910 N.3   172  CYS172     -0.1221
     81  CA         2.1350  -15.5190  -15.1480 C.3   172  CYS172      0.1794
     82  C          0.9220  -14.6300  -15.4990 C.2   172  CYS172      0.2443
     83  O         -0.0930  -14.6770  -14.7910 O.2   172  CYS172     -0.2733
     84  CB         1.7370  -16.9880  -15.2640 C.3   172  CYS172      0.0970
     85  SG         0.9970  -17.4270  -16.8550 S.3   172  CYS172     -0.0800
     86  N          1.0010  -13.8280  -16.5900 N.am  173  PRO173     -0.2729
     87  CA         2.0930  -13.6210  -17.5560 C.3   173  PRO173      0.1401
     88  C          3.3920  -13.0940  -16.9590 C.2   173  PRO173      0.2269
     89  O          4.4360  -13.2200  -17.5910 O.2   173  PRO173     -0.2865
     90  CB         1.5360  -12.5580  -18.5090 C.3   173  PRO173      0.0296
     91  CG         0.0690  -12.6440  -18.3740 C.3   173  PRO173      0.0237
     92  CD        -0.2220  -13.1140  -16.9960 C.3   173  PRO173      0.0939
     93  N         -3.0350  -19.7500  -11.8770 N.3   197  LEU197     -0.1231
     94  CA        -3.7010  -18.9700  -12.8980 C.3   197  LEU197      0.1693
     95  C         -5.1890  -19.3150  -12.8750 C.2   197  LEU197      0.2591
     96  O         -5.5640  -20.4810  -12.6990 O.2   197  LEU197     -0.2718
     97  CB        -3.1160  -19.2430  -14.2820 C.3   197  LEU197      0.0284
     98  CG        -3.5080  -18.2720  -15.4080 C.3   197  LEU197      0.0019
     99  CD1       -2.7790  -16.9570  -15.2730 C.3   197  LEU197      0.0001
    100  CD2       -3.2400  -18.8820  -16.7950 C.3   197  LEU197      0.0001
    101  N         -6.0210  -18.2950  -13.0300 N.am  198  GLU198     -0.1979
    102  CA        -7.4700  -18.4600  -13.0070 C.3   198  GLU198      0.1602
    103  C         -7.9080  -19.6070  -13.9110 C.2   198  GLU198      0.2287
    104  O         -7.5220  -19.6650  -15.0850 O.2   198  GLU198     -0.2864
    105  CB        -8.1840  -17.1660  -13.4170 C.3   198  GLU198      0.0415
    106  CG        -7.7060  -16.5280  -14.7430 C.3   198  GLU198      0.1163
    107  CD        -6.7710  -15.3570  -14.5640 C.2   198  GLU198      0.3649
    108  OE1       -5.9620  -15.3790  -13.6160 O.co2 198  GLU198     -0.2457
    109  OE2       -6.8310  -14.4030  -15.3710 O.co2 198  GLU198     -0.2457
@<TRIPOS>BOND
     1    49    50   ar
     2    49    47   ar
     3    52    50   ar
     4    52    54   ar
     5    50    48   ar
     6    47    46   ar
     7    54    53   ar
     8     4     3    2
     9    48    46   ar
    10    48    51   ar
    11    46    45    1
    12     1     2    1
    13    53    51   ar
    14    11    13   ar
    15    11     8   ar
    16    22    21    1
    17     5     2    1
    18     5     6    1
    19    13    14   ar
    20     3     2    1
    21    45    42    1
    22    21    20    1
    23     8     6   ar
    24     8    10   ar
    25     6     7   ar
    26    14    12   ar
    27    42    41    1
    28    42    43    1
    29    20    19    1
    30    10    12   ar
    31    10     9   ar
    32    90    91    1
    33    90    87    1
    34     7     9   ar
    35    15    16    1
    36    91    92    1
    37    19    16    1
    38    41    33   am
    39    43    55   am
    40    43    44    2
    41    55    56    1
    42    89    88    2
    43    87    88    1
    44    87    86    1
    45    16    17    1
    46    57    56    1
    47    57    58    2
    48    59    56    1
    49    59    60    1
    50    33    34    2
    51    33    32    1
    52    60    61    1
    53    92    86    1
    54    85    84    1
    55   100    98    1
    56    86    82   am
    57    35    32    1
    58    35    36    1
    59    32    31    1
    60    17    18    2
    61    62    61    1
    62    62    63    1
    63    38    36   ar
    64    38    40   ar
    65    36    37   ar
    66    82    81    1
    67    82    83    2
    68    98    99    1
    69    98    97    1
    70   109   107   ar
    71    84    81    1
    72    81    80    1
    73   104   103    2
    74    26    25    2
    75    40    39   ar
    76    31    25   am
    77   106   107    1
    78   106   105    1
    79   107   108   ar
    80    37    39   ar
    81    25    24    1
    82    97    94    1
    83    78    77    2
    84   103   102    1
    85    77    79   am
    86    77    76    1
    87    76    73    1
    88   105   102    1
    89    75    74    2
    90    29    28   ar
    91   101   102    1
    92   101    95   am
    93    24    27    1
    94    24    23    1
    95    94    95    1
    96    94    93    1
    97    95    96    2
    98    28    30   ar
    99    28    27    1
   100    73    74    1
   101    73    72    1
   102    71    69   ar
   103    67    66    2
   104    72    66   am
   105    66    65    1
   106    69    68    1
   107    69    70   ar
   108    68    65    1
   109    65    64    1
