@<TRIPOS>MOLECULE
tmp/3bwnF00.pdb
 122 114 0 0 0
SMALL
GASTEIGER

@<TRIPOS>ATOM
      1  N         52.2720    5.0830  106.0000 N.3    80  GLY80      -0.1210
      2  CA        52.2310    4.3620  104.7400 C.3    80  GLY80       0.1956
      3  C         51.1530    3.2960  104.7550 C.2    80  GLY80       0.2613
      4  O         50.6900    2.8870  105.8140 O.2    80  GLY80      -0.2717
      5  N         50.7480    2.8630  103.5640 N.am   81  SER81      -0.1938
      6  CA        49.8440    1.7420  103.3810 C.3    81  SER81       0.2055
      7  C         50.5210    0.5100  103.9290 C.2    81  SER81       0.2643
      8  O         49.8550   -0.5110  104.2860 O.2    81  SER81      -0.2714
      9  CB        49.5620    1.5230  101.8980 C.3    81  SER81       0.2130
     10  OG        49.2000    0.1600  101.6530 O.3    81  SER81      -0.2179
     11  N         51.8550    0.5990  103.9490 N.am   82  THR82      -0.1950
     12  CA        52.7510   -0.4550  104.3730 C.3    82  THR82       0.1897
     13  C         52.3770   -0.9590  105.7790 C.2    82  THR82       0.2313
     14  O         52.2560   -2.1570  105.9970 O.2    82  THR82      -0.2863
     15  CB        54.2250    0.0160  104.2150 C.3    82  THR82       0.1794
     16  OG1       55.1310   -0.9990  104.6840 O.3    82  THR82      -0.2208
     17  CG2       54.4720    1.2650  104.9860 C.3    82  THR82       0.0378
     18  N         52.7280   -8.5680   94.4780 N.3   110  TYR110     -0.1241
     19  CA        53.5640   -7.5940   95.1760 C.3   110  TYR110      0.1605
     20  C         54.6210   -8.2610   96.0410 C.2   110  TYR110      0.2264
     21  O         54.3090   -8.7670   97.1360 O.2   110  TYR110     -0.2867
     22  CB        52.6800   -6.7150   96.0540 C.3   110  TYR110      0.0534
     23  CG        53.3750   -5.5710   96.7760 C.ar  110  TYR110     -0.0201
     24  CD1       54.5160   -4.9520   96.2480 C.ar  110  TYR110     -0.0009
     25  CD2       52.8540   -5.0820   97.9730 C.ar  110  TYR110     -0.0009
     26  CE1       55.1300   -3.8870   96.9170 C.ar  110  TYR110      0.0417
     27  CE2       53.4480   -4.0190   98.6430 C.ar  110  TYR110      0.0417
     28  CZ        54.5870   -3.4250   98.1190 C.ar  110  TYR110      0.1957
     29  OH        55.1660   -2.3740   98.8110 O.3   110  TYR110     -0.2866
     30  N         56.5880   -8.8370  104.5760 N.3   116  GLU116     -0.1245
     31  CA        55.5970   -8.2530  105.4910 C.3   116  GLU116      0.1567
     32  C         54.8370   -9.2810  106.3260 C.2   116  GLU116      0.2260
     33  O         54.5690   -9.0790  107.5120 O.2   116  GLU116     -0.2867
     34  CB        54.6200   -7.3450  104.7230 C.3   116  GLU116      0.0388
     35  CG        55.0680   -5.8720  104.7030 C.3   116  GLU116      0.1160
     36  CD        54.0950   -4.9390  104.0070 C.2   116  GLU116      0.3649
     37  OE1       52.8660   -5.0400  104.2290 O.co2 116  GLU116     -0.2457
     38  OE2       54.5680   -4.0730  103.2490 O.co2 116  GLU116     -0.2457
     39  N         45.5800   -6.7710   94.8570 N.3   145  THR145     -0.1218
     40  CA        46.2370   -5.5690   94.4230 C.3   145  THR145      0.1862
     41  C         45.7250   -5.2930   93.0160 C.2   145  THR145      0.2287
     42  O         45.9470   -6.0840   92.1000 O.2   145  THR145     -0.2866
     43  CB        47.7700   -5.7890   94.4050 C.3   145  THR145      0.1770
     44  OG1       48.1830   -6.3920   95.6270 O.3   145  THR145     -0.2211
     45  CG2       48.5080   -4.5040   94.2440 C.3   145  THR145      0.0375
     46  N         50.6170   -4.8380   91.3110 N.3   149  ASN149     -0.1240
     47  CA        52.0560   -4.6840   91.4100 C.3   149  ASN149      0.1653
     48  C         52.4810   -6.1310   91.3960 C.2   149  ASN149      0.2266
     49  O         52.0840   -6.8850   92.2740 O.2   149  ASN149     -0.2867
     50  CB        52.3910   -3.9850   92.7390 C.3   149  ASN149      0.1155
     51  CG        53.8910   -3.7750   92.9730 C.2   149  ASN149      0.2627
     52  OD1       54.7590   -4.3730   92.3120 O.2   149  ASN149     -0.2716
     53  ND2       54.2000   -2.9200   93.9490 N.am  149  ASN149     -0.0877
     54  N         44.1570   -3.7270   98.0080 N.3   165  ASP165     -0.1239
     55  CA        45.1660   -2.7300   97.8760 C.3   165  ASP165      0.1674
     56  C         44.9530   -1.9070   96.6040 C.2   165  ASP165      0.2266
     57  O         45.3020   -2.3520   95.5130 O.2   165  ASP165     -0.2867
     58  CB        46.5180   -3.4190   97.8530 C.3   165  ASP165      0.1410
     59  CG        47.6650   -2.4620   98.1100 C.2   165  ASP165      0.3668
     60  OD1       47.5560   -1.3020   97.6790 O.co2 165  ASP165     -0.2456
     61  OD2       48.6600   -2.8640   98.7470 O.co2 165  ASP165     -0.2456
     62  N         46.4130    0.8840   95.7360 N.3   167  ALA167     -0.1231
     63  CA        47.4990    1.8480   95.6510 C.3   167  ALA167      0.1694
     64  C         47.4630    2.6640   94.3460 C.2   167  ALA167      0.2592
     65  O         47.5560    3.9080   94.3920 O.2   167  ALA167     -0.2718
     66  CB        48.8440    1.1680   95.8460 C.3   167  ALA167      0.0304
     67  N         47.3050    1.9720   93.2080 N.am  168  TYR168     -0.1976
     68  CA        47.3440    2.6320   91.9140 C.3   168  TYR168      0.1639
     69  C         45.9980    2.7300   91.2250 C.2   168  TYR168      0.2290
     70  O         45.9380    2.8500   90.0110 O.2   168  TYR168     -0.2864
     71  CB        48.3500    1.9600   90.9830 C.3   168  TYR168      0.0560
     72  CG        49.7230    1.8380   91.5850 C.ar  168  TYR168     -0.0198
     73  CD1       50.6350    2.8740   91.4750 C.ar  168  TYR168     -0.0009
     74  CD2       50.1000    0.6870   92.2730 C.ar  168  TYR168     -0.0009
     75  CE1       51.8880    2.7800   92.0350 C.ar  168  TYR168      0.0417
     76  CE2       51.3510    0.5840   92.8390 C.ar  168  TYR168      0.0417
     77  CZ        52.2400    1.6370   92.7230 C.ar  168  TYR168      0.1957
     78  OH        53.4950    1.5510   93.2850 O.3   168  TYR168     -0.2866
     79  N         47.3810    4.5000   99.4070 N.3   188  THR188     -0.1218
     80  CA        48.7000    5.0880   99.7510 C.3   188  THR188      0.1862
     81  C         48.8960    6.4580   99.1010 C.2   188  THR188      0.2287
     82  O         48.7600    6.5930   97.9160 O.2   188  THR188     -0.2866
     83  CB        49.8310    4.1810   99.3070 C.3   188  THR188      0.1770
     84  OG1       51.0620    4.6140   99.8980 O.3   188  THR188     -0.2211
     85  CG2       49.9690    4.2360   97.8450 C.3   188  THR188      0.0375
     86  N         51.7340    8.1630   98.6850 N.3   190  SER190     -0.1202
     87  CA        52.9510    8.1620   97.8560 C.3   190  SER190      0.2020
     88  C         52.6580    8.0990   96.3740 C.2   190  SER190      0.2618
     89  O         53.1940    8.8570   95.5640 O.2   190  SER190     -0.2717
     90  CB        53.8020    6.9570   98.2440 C.3   190  SER190      0.2103
     91  OG        53.7590    6.8010   99.6640 O.3   190  SER190     -0.2182
     92  N         51.7610    7.2040   96.0220 N.am  191  LYS191     -0.1979
     93  CA        51.5560    6.8250   94.6220 C.3   191  LYS191      0.1596
     94  C         50.5940    7.7180   93.8720 C.2   191  LYS191      0.2287
     95  O         50.5960    7.7090   92.6520 O.2   191  LYS191     -0.2864
     96  CB        51.0920    5.3750   94.5590 C.3   191  LYS191      0.0298
     97  CG        52.0910    4.4390   95.2390 C.3   191  LYS191      0.0038
     98  CD        53.5010    4.6360   94.6780 C.3   191  LYS191      0.0206
     99  CE        54.5250    4.1770   95.7220 C.3   191  LYS191      0.1093
    100  NZ        55.8300    3.8600   95.0620 N.3   191  LYS191     -0.1314
    101  N         55.0080    9.2850  104.2790 N.3   199  ARG199     -0.1245
    102  CA        54.6940    8.0830  105.0190 C.3   199  ARG199      0.1563
    103  C         53.2470    7.9560  105.4660 C.2   199  ARG199      0.2260
    104  O         52.9520    7.6790  106.6380 O.2   199  ARG199     -0.2867
    105  CB        55.6740    7.9520  106.1910 C.3   199  ARG199      0.0307
    106  CG        56.6820    6.7500  106.1040 C.3   199  ARG199      0.0489
    107  CD        57.4310    6.6610  104.8140 C.3   199  ARG199      0.2205
    108  NE        56.5100    6.4690  103.7010 N.pl3 199  ARG199     -0.0865
    109  CZ        55.8070    5.3660  103.4110 C.cat 199  ARG199      0.5346
    110  NH1       55.8570    4.2530  104.1660 N.pl3 199  ARG199      0.1354
    111  NH2       55.0230    5.3990  102.3280 N.pl3 199  ARG199      0.1354
    112  N         54.4140    0.6240   86.9590 N.3   301  PHE301     -0.1241
    113  CA        55.5160   -0.3150   86.7350 C.3   301  PHE301      0.1605
    114  C         55.3980   -1.0430   85.4100 C.2   301  PHE301      0.2264
    115  O         54.3150   -1.5030   85.0360 O.2   301  PHE301     -0.2867
    116  CB        55.5730   -1.3500   87.8540 C.3   301  PHE301      0.0534
    117  CG        55.8600   -0.7590   89.1920 C.ar  301  PHE301     -0.0203
    118  CD1       57.1650   -0.4110   89.5410 C.ar  301  PHE301     -0.0042
    119  CD2       54.8200   -0.5280   90.1010 C.ar  301  PHE301     -0.0042
    120  CE1       57.4360    0.1610   90.7690 C.ar  301  PHE301     -0.0003
    121  CE2       55.0840    0.0670   91.3320 C.ar  301  PHE301     -0.0003
    122  CZ        56.3840    0.4100   91.6590 C.ar  301  PHE301     -0.0000
@<TRIPOS>BOND
     1   115   114    2
     2   114   113    1
     3   113   112    1
     4   113   116    1
     5   116   117    1
     6   117   118   ar
     7   117   119   ar
     8   118   120   ar
     9    70    69    2
    10   119   121   ar
    11   120   122   ar
    12    71    72    1
    13    71    68    1
    14    69    68    1
    15    46    47    1
    16   121   122   ar
    17    48    47    1
    18    48    49    2
    19    47    50    1
    20    73    72   ar
    21    73    75   ar
    22    72    74   ar
    23    68    67    1
    24    75    77   ar
    25    42    41    2
    26    74    76   ar
    27    52    51    2
    28    95    94    2
    29    77    76   ar
    30    77    78    1
    31    50    51    1
    32    51    53   am
    33    41    40    1
    34    67    64   am
    35    94    93    1
    36    45    43    1
    37    64    65    2
    38    64    63    1
    39    43    40    1
    40    43    44    1
    41    40    39    1
    42    18    19    1
    43    96    93    1
    44    96    97    1
    45    93    92    1
    46    98    97    1
    47    98    99    1
    48   100    99    1
    49    19    20    1
    50    19    22    1
    51    57    56    2
    52    89    88    2
    53    63    62    1
    54    63    66    1
    55    92    88   am
    56    20    21    2
    57    22    23    1
    58    24    23   ar
    59    24    26   ar
    60    88    87    1
    61    56    55    1
    62    23    25   ar
    63    26    28   ar
    64    60    59   ar
    65    85    83    1
    66    58    55    1
    67    58    59    1
    68    87    90    1
    69    87    86    1
    70    55    54    1
    71    82    81    2
    72    25    27   ar
    73    59    61   ar
    74    28    27   ar
    75    28    29    1
    76    90    91    1
    77    81    80    1
    78    83    80    1
    79    83    84    1
    80    79    80    1
    81    10     9    1
    82     9     6    1
    83   111   109    1
    84    38    36   ar
    85     6     5    1
    86     6     7    1
    87   109   108    2
    88   109   110    1
    89     5     3   am
    90   108   107    1
    91     7    11   am
    92     7     8    2
    93    11    12    1
    94    36    37   ar
    95    36    35    1
    96    15    12    1
    97    15    16    1
    98    15    17    1
    99   101   102    1
   100    12    13    1
   101    30    31    1
   102    35    34    1
   103    34    31    1
   104     2     3    1
   105     2     1    1
   106     3     4    2
   107   107   106    1
   108   102   103    1
   109   102   105    1
   110   103   104    2
   111    31    32    1
   112    13    14    2
   113   106   105    1
   114    32    33    2
