@<TRIPOS>MOLECULE
tmp/3bwnF01.pdb
 95 90 0 0 0
SMALL
GASTEIGER

@<TRIPOS>ATOM
      1  N         63.3070    0.0420   93.0200 N.3    10  HIS10      -0.1226
      2  CA        62.3730    0.6030   93.9630 C.3    10  HIS10       0.1752
      3  C         61.5100    1.6290   93.2520 C.2    10  HIS10       0.2596
      4  O         61.9890    2.3820   92.3680 O.2    10  HIS10      -0.2718
      5  CB        63.1390    1.3040   95.0680 C.3    10  HIS10       0.0759
      6  CG        63.9900    2.4470   94.5890 C.ar   10  HIS10       0.0818
      7  ND1       63.4640    3.5860   94.0120 N.ar   10  HIS10      -0.2268
      8  CD2       65.3320    2.6370   94.6250 C.ar   10  HIS10       0.1154
      9  CE1       64.4410    4.4260   93.7130 C.ar   10  HIS10       0.1986
     10  NE2       65.5870    3.8760   94.0780 N.ar   10  HIS10      -0.2212
     11  N         60.2470    1.6810   93.6350 N.am   11  GLY11      -0.1957
     12  CA        59.3340    2.6040   92.9820 C.3    11  GLY11       0.1869
     13  C         59.2560    3.9980   93.6210 C.2    11  GLY11       0.2309
     14  O         58.1540    4.4850   93.8470 O.2    11  GLY11      -0.2863
     15  N         52.7280   -8.5680   94.4780 N.3   110  TYR110     -0.1241
     16  CA        53.5640   -7.5940   95.1760 C.3   110  TYR110      0.1605
     17  C         54.6210   -8.2610   96.0410 C.2   110  TYR110      0.2264
     18  O         54.3090   -8.7670   97.1360 O.2   110  TYR110     -0.2867
     19  CB        52.6800   -6.7150   96.0540 C.3   110  TYR110      0.0534
     20  CG        53.3750   -5.5710   96.7760 C.ar  110  TYR110     -0.0201
     21  CD1       54.5160   -4.9520   96.2480 C.ar  110  TYR110     -0.0009
     22  CD2       52.8540   -5.0820   97.9730 C.ar  110  TYR110     -0.0009
     23  CE1       55.1300   -3.8870   96.9170 C.ar  110  TYR110      0.0417
     24  CE2       53.4480   -4.0190   98.6430 C.ar  110  TYR110      0.0417
     25  CZ        54.5870   -3.4250   98.1190 C.ar  110  TYR110      0.1957
     26  OH        55.1660   -2.3740   98.8110 O.3   110  TYR110     -0.2866
     27  N         56.6770   -7.5030   98.2360 N.3   112  THR112     -0.1218
     28  CA        56.8530   -7.0750   99.6520 C.3   112  THR112      0.1862
     29  C         55.9000   -7.6840  100.6980 C.2   112  THR112      0.2287
     30  O         56.3020   -7.9120  101.8550 O.2   112  THR112     -0.2866
     31  CB        56.8090   -5.5350   99.7580 C.3   112  THR112      0.1770
     32  OG1       57.5890   -4.9540   98.6950 O.3   112  THR112     -0.2211
     33  CG2       57.3220   -5.0650  101.1130 C.3   112  THR112      0.0375
     34  N         50.6170   -4.8380   91.3110 N.3   149  ASN149     -0.1240
     35  CA        52.0560   -4.6840   91.4100 C.3   149  ASN149      0.1653
     36  C         52.4810   -6.1310   91.3960 C.2   149  ASN149      0.2266
     37  O         52.0840   -6.8850   92.2740 O.2   149  ASN149     -0.2867
     38  CB        52.3910   -3.9850   92.7390 C.3   149  ASN149      0.1155
     39  CG        53.8910   -3.7750   92.9730 C.2   149  ASN149      0.2627
     40  OD1       54.7590   -4.3730   92.3120 O.2   149  ASN149     -0.2716
     41  ND2       54.2000   -2.9200   93.9490 N.am  149  ASN149     -0.0877
     42  N         47.3050    1.9720   93.2080 N.3   168  TYR168     -0.1241
     43  CA        47.3440    2.6320   91.9140 C.3   168  TYR168      0.1605
     44  C         45.9980    2.7300   91.2250 C.2   168  TYR168      0.2264
     45  O         45.9380    2.8500   90.0110 O.2   168  TYR168     -0.2867
     46  CB        48.3500    1.9600   90.9830 C.3   168  TYR168      0.0534
     47  CG        49.7230    1.8380   91.5850 C.ar  168  TYR168     -0.0201
     48  CD1       50.6350    2.8740   91.4750 C.ar  168  TYR168     -0.0009
     49  CD2       50.1000    0.6870   92.2730 C.ar  168  TYR168     -0.0009
     50  CE1       51.8880    2.7800   92.0350 C.ar  168  TYR168      0.0417
     51  CE2       51.3510    0.5840   92.8390 C.ar  168  TYR168      0.0417
     52  CZ        52.2400    1.6370   92.7230 C.ar  168  TYR168      0.1957
     53  OH        53.4950    1.5510   93.2850 O.3   168  TYR168     -0.2866
     54  N         51.7610    7.2040   96.0220 N.3   191  LYS191     -0.1245
     55  CA        51.5560    6.8250   94.6220 C.3   191  LYS191      0.1561
     56  C         50.5940    7.7180   93.8720 C.2   191  LYS191      0.2260
     57  O         50.5960    7.7090   92.6520 O.2   191  LYS191     -0.2867
     58  CB        51.0920    5.3750   94.5590 C.3   191  LYS191      0.0271
     59  CG        52.0910    4.4390   95.2390 C.3   191  LYS191      0.0035
     60  CD        53.5010    4.6360   94.6780 C.3   191  LYS191      0.0206
     61  CE        54.5250    4.1770   95.7220 C.3   191  LYS191      0.1093
     62  NZ        55.8300    3.8600   95.0620 N.3   191  LYS191     -0.1314
     63  N         54.4140    0.6240   86.9590 N.3   301  PHE301     -0.1241
     64  CA        55.5160   -0.3150   86.7350 C.3   301  PHE301      0.1605
     65  C         55.3980   -1.0430   85.4100 C.2   301  PHE301      0.2264
     66  O         54.3150   -1.5030   85.0360 O.2   301  PHE301     -0.2867
     67  CB        55.5730   -1.3500   87.8540 C.3   301  PHE301      0.0534
     68  CG        55.8600   -0.7590   89.1920 C.ar  301  PHE301     -0.0203
     69  CD1       57.1650   -0.4110   89.5410 C.ar  301  PHE301     -0.0042
     70  CD2       54.8200   -0.5280   90.1010 C.ar  301  PHE301     -0.0042
     71  CE1       57.4360    0.1610   90.7690 C.ar  301  PHE301     -0.0003
     72  CE2       55.0840    0.0670   91.3320 C.ar  301  PHE301     -0.0003
     73  CZ        56.3840    0.4100   91.6590 C.ar  301  PHE301     -0.0000
     74  N         63.4450   -5.0480   89.7250 N.3   324  ARG324     -0.1245
     75  CA        62.9720   -6.0160   90.6880 C.3   324  ARG324      0.1563
     76  C         62.8000   -7.3590   89.9790 C.2   324  ARG324      0.2260
     77  O         62.0410   -7.4550   89.0290 O.2   324  ARG324     -0.2867
     78  CB        61.6750   -5.5260   91.3450 C.3   324  ARG324      0.0307
     79  CG        61.0540   -6.4870   92.3890 C.3   324  ARG324      0.0489
     80  CD        61.8320   -6.5320   93.6890 C.3   324  ARG324      0.2205
     81  NE        62.2590   -5.2170   94.2000 N.pl3 324  ARG324     -0.0865
     82  CZ        61.5920   -4.5200   95.1120 C.cat 324  ARG324      0.5346
     83  NH1       60.4450   -4.9790   95.5990 N.pl3 324  ARG324      0.1354
     84  NH2       62.0640   -3.3610   95.5410 N.pl3 324  ARG324      0.1354
     85  N         60.3780   -6.1830   87.0980 N.3   337  ARG337     -0.1245
     86  CA        59.5820   -4.9730   87.2820 C.3   337  ARG337      0.1563
     87  C         60.4790   -3.7480   87.3000 C.2   337  ARG337      0.2260
     88  O         61.4470   -3.6810   88.0710 O.2   337  ARG337     -0.2867
     89  CB        58.8130   -5.0660   88.5990 C.3   337  ARG337      0.0307
     90  CG        57.8580   -3.9070   88.8740 C.3   337  ARG337      0.0489
     91  CD        57.4830   -3.8730   90.3770 C.3   337  ARG337      0.2205
     92  NE        58.5710   -3.2960   91.1630 N.pl3 337  ARG337     -0.0865
     93  CZ        58.5420   -3.1220   92.4740 C.cat 337  ARG337      0.5346
     94  NH1       57.4850   -3.4860   93.1720 N.pl3 337  ARG337      0.1354
     95  NH2       59.5850   -2.5940   93.0930 N.pl3 337  ARG337      0.1354
@<TRIPOS>BOND
     1    66    65    2
     2    65    64    1
     3    64    63    1
     4    64    67    1
     5    85    86    1
     6    86    87    1
     7    86    89    1
     8    87    88    2
     9    67    68    1
    10    89    90    1
    11    90    91    1
    12    77    76    2
    13    68    69   ar
    14    68    70   ar
    15    69    71   ar
    16    74    75    1
    17    76    75    1
    18    45    44    2
    19    70    72   ar
    20    91    92    1
    21    75    78    1
    22    71    73   ar
    23    46    47    1
    24    46    43    1
    25    92    93    2
    26    44    43    1
    27    34    35    1
    28    72    73   ar
    29    78    79    1
    30    36    35    1
    31    36    37    2
    32    35    38    1
    33    48    47   ar
    34    48    50   ar
    35    47    49   ar
    36    43    42    1
    37    50    52   ar
    38    49    51   ar
    39    40    39    2
    40     4     3    2
    41    79    80    1
    42    93    95    1
    43    93    94    1
    44    57    56    2
    45    52    51   ar
    46    52    53    1
    47    38    39    1
    48    39    41   am
    49    12    13    1
    50    12    11    1
    51     1     2    1
    52     3    11   am
    53     3     2    1
    54    13    14    2
    55    80    81    1
    56     9     7   ar
    57     9    10   ar
    58    56    55    1
    59     2     5    1
    60     7     6   ar
    61    10     8   ar
    62    81    82    2
    63    15    16    1
    64    58    55    1
    65    58    59    1
    66     6     8   ar
    67     6     5    1
    68    55    54    1
    69    60    59    1
    70    60    61    1
    71    62    61    1
    72    82    84    1
    73    82    83    1
    74    16    17    1
    75    16    19    1
    76    17    18    2
    77    19    20    1
    78    21    20   ar
    79    21    23   ar
    80    20    22   ar
    81    23    25   ar
    82    22    24   ar
    83    25    24   ar
    84    25    26    1
    85    27    28    1
    86    32    31    1
    87    28    31    1
    88    28    29    1
    89    31    33    1
    90    29    30    2
