@<TRIPOS>MOLECULE
tmp/3bwnB00.pdb
 134 125 0 0 0
SMALL
GASTEIGER

@<TRIPOS>ATOM
      1  N          9.1910    0.3140   47.2220 N.3    14  GLY14      -0.1225
      2  CA         8.2460    1.2540   46.5920 C.3    14  GLY14       0.1811
      3  C          8.1830    2.6040   47.3220 C.2    14  GLY14       0.2280
      4  O          7.0970    3.1250   47.5450 O.2    14  GLY14      -0.2866
      5  N          1.4040    1.1170   59.6880 N.3    83  GLY83      -0.1210
      6  CA         1.3410    0.6390   58.3310 C.3    83  GLY83       0.1956
      7  C          0.2720   -0.4150   58.1700 C.2    83  GLY83       0.2613
      8  O         -0.1810   -1.0260   59.1450 O.2    83  GLY83      -0.2717
      9  N         -0.1600   -0.6110   56.9330 N.am   84  SER84      -0.1938
     10  CA        -0.9970   -1.7130   56.5390 C.3    84  SER84       0.2055
     11  C         -0.3240   -3.0470   56.8520 C.2    84  SER84       0.2643
     12  O         -0.9940   -4.0390   57.0330 O.2    84  SER84      -0.2714
     13  CB        -1.2780   -1.6420   55.0530 C.3    84  SER84       0.2130
     14  OG        -2.0550   -2.7690   54.6590 O.3    84  SER84      -0.2179
     15  N          1.0070   -3.0370   56.8770 N.am   85  THR85      -0.1950
     16  CA         1.8570   -4.1980   57.1750 C.3    85  THR85       0.1897
     17  C          1.4550   -4.9300   58.5010 C.2    85  THR85       0.2313
     18  O          1.2090   -6.1440   58.5050 O.2    85  THR85      -0.2863
     19  CB         3.3950   -3.7950   57.0950 C.3    85  THR85       0.1794
     20  OG1        4.2320   -4.8430   57.6290 O.3    85  THR85      -0.2208
     21  CG2        3.6470   -2.5540   57.8960 C.3    85  THR85       0.0378
     22  N          2.0320  -10.2200   45.9730 N.3   113  TYR113     -0.1241
     23  CA         2.8770   -9.3320   46.7790 C.3   113  TYR113      0.1605
     24  C          3.8940  -10.1320   47.6050 C.2   113  TYR113      0.2264
     25  O          3.5180  -10.9200   48.5020 O.2   113  TYR113     -0.2867
     26  CB         1.9650   -8.4610   47.6680 C.3   113  TYR113      0.0534
     27  CG         2.6640   -7.5240   48.5910 C.ar  113  TYR113     -0.0201
     28  CD1        3.8300   -6.8630   48.2070 C.ar  113  TYR113     -0.0009
     29  CD2        2.1540   -7.2830   49.8530 C.ar  113  TYR113     -0.0009
     30  CE1        4.4710   -5.9730   49.0660 C.ar  113  TYR113      0.0417
     31  CE2        2.7870   -6.4110   50.7410 C.ar  113  TYR113      0.0417
     32  CZ         3.9330   -5.7450   50.3370 C.ar  113  TYR113      0.1957
     33  OH         4.5540   -4.8850   51.2180 O.3   113  TYR113     -0.2866
     34  N          4.2750  -10.7380   51.5930 N.3   116  TYR116     -0.1241
     35  CA         3.3590  -11.7180   52.1690 C.3   116  TYR116      0.1605
     36  C          4.1120  -13.0050   52.5440 C.2   116  TYR116      0.2264
     37  O          3.8740  -13.5580   53.6080 O.2   116  TYR116     -0.2867
     38  CB         2.1780  -12.0450   51.2200 C.3   116  TYR116      0.0534
     39  CG         1.1070  -10.9720   51.0660 C.ar  116  TYR116     -0.0201
     40  CD1        0.9050   -9.9960   52.0510 C.ar  116  TYR116     -0.0009
     41  CD2        0.2720  -10.9430   49.9260 C.ar  116  TYR116     -0.0009
     42  CE1       -0.0870   -9.0000   51.9070 C.ar  116  TYR116      0.0417
     43  CE2       -0.7340   -9.9470   49.7670 C.ar  116  TYR116      0.0417
     44  CZ        -0.8960   -8.9760   50.7720 C.ar  116  TYR116      0.1957
     45  OH        -1.8560   -7.9970   50.6550 O.3   116  TYR116     -0.2866
     46  N         -5.3460   -8.7330   46.6930 N.3   148  THR148     -0.1218
     47  CA        -4.7720   -7.3980   46.6070 C.3   148  THR148      0.1862
     48  C         -5.2540   -6.8580   45.2900 C.2   148  THR148      0.2287
     49  O         -4.9720   -7.4270   44.2540 O.2   148  THR148     -0.2866
     50  CB        -3.2180   -7.4410   46.6130 C.3   148  THR148      0.1770
     51  OG1       -2.7930   -8.1460   47.7770 O.3   148  THR148     -0.2211
     52  CG2       -2.5830   -6.0570   46.6260 C.3   148  THR148      0.0375
     53  N         -0.2940   -6.0830   43.5190 N.3   152  ASN152     -0.1240
     54  CA         1.1290   -5.8760   43.6010 C.3   152  ASN152      0.1653
     55  C          1.6900   -7.2690   43.3550 C.2   152  ASN152      0.2266
     56  O          1.4040   -8.1890   44.1450 O.2   152  ASN152     -0.2867
     57  CB         1.4560   -5.4020   45.0040 C.3   152  ASN152      0.1155
     58  CG         2.9070   -5.1170   45.1930 C.2   152  ASN152      0.2627
     59  OD1        3.7710   -5.7070   44.5200 O.2   152  ASN152     -0.2716
     60  ND2        3.2020   -4.2510   46.1370 N.am  152  ASN152     -0.0877
     61  N         -6.7010   -6.2250   50.2920 N.3   175  ASP175     -0.1239
     62  CA        -5.7540   -5.2250   50.4900 C.3   175  ASP175      0.1674
     63  C         -6.0100   -4.1660   49.4320 C.2   175  ASP175      0.2266
     64  O         -5.5260   -4.2540   48.3320 O.2   175  ASP175     -0.2867
     65  CB        -4.3700   -5.8030   50.3510 C.3   175  ASP175      0.1410
     66  CG        -3.2640   -4.8400   50.7220 C.2   175  ASP175      0.3668
     67  OD1       -3.4450   -3.5810   50.7540 O.co2 175  ASP175     -0.2456
     68  OD2       -2.1610   -5.3990   50.9470 O.co2 175  ASP175     -0.2456
     69  N         -4.8060   -1.2080   49.1530 N.3   177  ALA177     -0.1231
     70  CA        -3.8470   -0.0970   49.3460 C.3   177  ALA177      0.1694
     71  C         -3.7660    0.8380   48.1670 C.2   177  ALA177      0.2592
     72  O         -3.4690    2.0590   48.3640 O.2   177  ALA177     -0.2718
     73  CB        -2.4530   -0.5980   49.7120 C.3   177  ALA177      0.0304
     74  N         -4.0300    0.3150   46.9540 N.am  178  TYR178     -0.1976
     75  CA        -3.9240    1.1650   45.7360 C.3   178  TYR178      0.1639
     76  C         -5.2580    1.4400   45.0380 C.2   178  TYR178      0.2290
     77  O         -5.2850    1.8000   43.8770 O.2   178  TYR178     -0.2864
     78  CB        -2.8950    0.6190   44.7070 C.3   178  TYR178      0.0560
     79  CG        -1.4960    0.4630   45.2370 C.ar  178  TYR178     -0.0198
     80  CD1       -0.6630    1.5600   45.4200 C.ar  178  TYR178     -0.0009
     81  CD2       -1.0010   -0.8000   45.5570 C.ar  178  TYR178     -0.0009
     82  CE1        0.6280    1.3990   45.9090 C.ar  178  TYR178      0.0417
     83  CE2        0.2890   -0.9650   46.0640 C.ar  178  TYR178      0.0417
     84  CZ         1.0870    0.1130   46.2460 C.ar  178  TYR178      0.1957
     85  OH         2.3470   -0.0800   46.7650 O.3   178  TYR178     -0.2866
     86  N         -3.4760    1.7530   53.3340 N.3   198  THR198     -0.1218
     87  CA        -2.2400    2.2700   53.8830 C.3   198  THR198      0.1862
     88  C         -2.1430    3.6990   53.5290 C.2   198  THR198      0.2287
     89  O         -2.4410    4.0600   52.3960 O.2   198  THR198     -0.2866
     90  CB        -1.0470    1.5380   53.3230 C.3   198  THR198      0.1770
     91  OG1        0.1420    2.2930   53.5930 O.3   198  THR198     -0.2211
     92  CG2       -1.1720    1.4500   51.9320 C.3   198  THR198      0.0375
     93  N          0.5530    5.3880   53.4260 N.3   200  SER200     -0.1202
     94  CA         1.7360    5.5280   52.5620 C.3   200  SER200      0.2020
     95  C          1.4660    5.7630   51.0820 C.2   200  SER200      0.2618
     96  O          2.2050    6.4630   50.3800 O.2   200  SER200     -0.2717
     97  CB         2.6740    4.3020   52.7220 C.3   200  SER200      0.2103
     98  OG         2.7090    3.8580   54.0910 O.3   200  SER200     -0.2182
     99  N          0.4510    5.0960   50.5850 N.am  201  LYS201     -0.1979
    100  CA         0.3180    4.9010   49.1510 C.3   201  LYS201      0.1596
    101  C         -0.6860    5.8650   48.5120 C.2   201  LYS201      0.2287
    102  O         -0.7840    5.9790   47.2930 O.2   201  LYS201     -0.2864
    103  CB         0.0040    3.4390   48.8850 C.3   201  LYS201      0.0298
    104  CG         1.1860    2.5500   49.2260 C.3   201  LYS201      0.0038
    105  CD         2.4020    3.0440   48.4050 C.3   201  LYS201      0.0206
    106  CE         3.7070    2.2840   48.6270 C.3   201  LYS201      0.1093
    107  NZ         4.5240    2.2550   47.3400 N.3   201  LYS201     -0.1314
    108  N          5.1990    7.6360   53.8710 N.3   206  ALA206     -0.1245
    109  CA         5.5930    6.2870   54.2400 C.3   206  ALA206      0.1562
    110  C          6.2120    6.1440   55.6090 C.2   206  ALA206      0.2260
    111  O          6.0890    5.0860   56.2230 O.2   206  ALA206     -0.2867
    112  CB         6.5490    5.7890   53.2410 C.3   206  ALA206      0.0290
    113  N          4.1220    5.5190   58.9840 N.3   209  ARG209     -0.1245
    114  CA         3.7240    4.2170   59.4740 C.3   209  ARG209      0.1563
    115  C          2.2590    4.0700   59.8990 C.2   209  ARG209      0.2260
    116  O          1.9730    3.6090   61.0050 O.2   209  ARG209     -0.2867
    117  CB         4.6820    3.7890   60.6200 C.3   209  ARG209      0.0307
    118  CG         6.2080    3.7960   60.2520 C.3   209  ARG209      0.0489
    119  CD         6.6240    2.6220   59.2610 C.3   209  ARG209      0.2205
    120  NE         5.7340    2.6800   58.1160 N.pl3 209  ARG209     -0.0865
    121  CZ         5.0260    1.6730   57.5890 C.cat 209  ARG209      0.5346
    122  NH1        5.0800    0.4070   58.0590 N.pl3 209  ARG209      0.1354
    123  NH2        4.2340    1.9470   56.5610 N.pl3 209  ARG209      0.1354
    124  N          3.2120    0.4460   40.3120 N.3   311  PHE311     -0.1241
    125  CA         4.3240   -0.4130   39.9720 C.3   311  PHE311      0.1605
    126  C          4.2400   -0.8150   38.5410 C.2   311  PHE311      0.2264
    127  O          3.1500   -1.1060   38.0610 O.2   311  PHE311     -0.2867
    128  CB         4.2620   -1.6630   40.8210 C.3   311  PHE311      0.0534
    129  CG         4.7350   -1.4640   42.2040 C.ar  311  PHE311     -0.0203
    130  CD1        6.1020   -1.4320   42.4850 C.ar  311  PHE311     -0.0042
    131  CD2        3.8330   -1.3080   43.2400 C.ar  311  PHE311     -0.0042
    132  CE1        6.5510   -1.2620   43.7840 C.ar  311  PHE311     -0.0003
    133  CE2        4.2980   -1.1420   44.5720 C.ar  311  PHE311     -0.0003
    134  CZ         5.6410   -1.1330   44.8300 C.ar  311  PHE311     -0.0000
@<TRIPOS>BOND
     1   127   126    2
     2   126   125    1
     3   125   124    1
     4   125   128    1
     5   128   129    1
     6   129   130   ar
     7   129   131   ar
     8   130   132   ar
     9   131   133   ar
    10    55    54    1
    11    55    56    2
    12    53    54    1
    13    54    57    1
    14   132   134   ar
    15    77    76    2
    16    49    48    2
    17    59    58    2
    18   133   134   ar
    19    78    79    1
    20    78    75    1
    21    57    58    1
    22    76    75    1
    23    58    60   am
    24    79    80   ar
    25    79    81   ar
    26    48    47    1
    27    80    82   ar
    28    81    83   ar
    29    75    74    1
    30    82    84   ar
    31    22    23    1
    32    83    84   ar
    33    84    85    1
    34     2     1    1
    35     2     3    1
    36    47    50    1
    37    47    46    1
    38    50    52    1
    39    50    51    1
    40    23    24    1
    41    23    26    1
    42    74    71   am
    43   102   101    2
    44     3     4    2
    45   107   106    1
    46    24    25    2
    47    26    27    1
    48    71    72    2
    49    71    70    1
    50    28    27   ar
    51    28    30   ar
    52    64    63    2
    53   105   106    1
    54   105   104    1
    55   101   100    1
    56    27    29   ar
    57   103   100    1
    58   103   104    1
    59    30    32   ar
    60   100    99    1
    61    69    70    1
    62    70    73    1
    63    63    62    1
    64    43    41   ar
    65    43    44   ar
    66    29    31   ar
    67    41    39   ar
    68    61    62    1
    69    32    31   ar
    70    32    33    1
    71    65    62    1
    72    65    66    1
    73    96    95    2
    74    99    95   am
    75    45    44    1
    76    66    67   ar
    77    66    68   ar
    78    44    42   ar
    79    39    38    1
    80    39    40   ar
    81    95    94    1
    82    38    35    1
    83    34    35    1
    84    42    40   ar
    85    92    90    1
    86    35    36    1
    87    89    88    2
    88    36    37    2
    89    94    97    1
    90    94    93    1
    91    97    98    1
    92   112   109    1
    93    90    91    1
    94    90    87    1
    95    86    87    1
    96    88    87    1
    97   108   109    1
    98   109   110    1
    99    14    13    1
   100    13    10    1
   101   110   111    2
   102    10    11    1
   103    10     9    1
   104   123   121    1
   105    11    15   am
   106    11    12    2
   107    15    16    1
   108     9     7   am
   109    19    16    1
   110    19    20    1
   111    19    21    1
   112    16    17    1
   113   121   122    1
   114   121   120    2
   115   120   119    1
   116     7     6    1
   117     7     8    2
   118     6     5    1
   119    17    18    2
   120   113   114    1
   121   119   118    1
   122   114   115    1
   123   114   117    1
   124   115   116    2
   125   118   117    1
