@<TRIPOS>MOLECULE
tmp/3bwrA00.pdb
 118 110 0 0 0
SMALL
GASTEIGER

@<TRIPOS>ATOM
      1  N         44.7940  -17.7470   31.3390 N.3    28  PRO28      -0.2116
      2  CA        45.9760  -17.8410   32.2050 C.3    28  PRO28       0.1372
      3  C         46.6230  -19.2340   32.1770 C.2    28  PRO28       0.2244
      4  O         47.8390  -19.3360   32.0170 O.2    28  PRO28      -0.2868
      5  CB        45.4200  -17.5290   33.6070 C.3    28  PRO28       0.0268
      6  CG        43.9330  -17.4950   33.4680 C.3    28  PRO28       0.0207
      7  CD        43.6420  -17.1690   32.0460 C.3    28  PRO28       0.0892
      8  N         41.5810  -22.4910   32.6820 N.3    32  GLN32      -0.1245
      9  CA        40.8560  -21.2250   32.7710 C.3    32  GLN32       0.1566
     10  C         40.5640  -20.6260   31.3990 C.2    32  GLN32       0.2260
     11  O         40.7760  -19.4340   31.1780 O.2    32  GLN32      -0.2867
     12  CB        41.6520  -20.2210   33.6080 C.3    32  GLN32       0.0367
     13  CG        41.6350  -20.4990   35.0980 C.3    32  GLN32       0.0905
     14  CD        42.7220  -19.7460   35.8400 C.2    32  GLN32       0.2608
     15  OE1       42.4520  -18.7590   36.5200 O.2    32  GLN32      -0.2717
     16  NE2       43.9630  -20.2060   35.7060 N.am   32  GLN32      -0.0878
     17  N         38.4110  -17.2670   30.4830 N.3    35  LEU35      -0.1245
     18  CA        38.7360  -16.2980   31.5150 C.3    35  LEU35       0.1561
     19  C         40.0450  -15.6030   31.1950 C.2    35  LEU35       0.2260
     20  O         40.8880  -16.1420   30.4740 O.2    35  LEU35      -0.2867
     21  CB        38.8350  -16.9690   32.8880 C.3    35  LEU35       0.0270
     22  CG        37.5700  -17.5570   33.5190 C.3    35  LEU35       0.0019
     23  CD1       37.9460  -18.5030   34.6490 C.3    35  LEU35       0.0001
     24  CD2       36.6180  -16.4650   34.0170 C.3    35  LEU35       0.0001
     25  N         43.5350  -13.5690   32.9530 N.3    37  LYS37      -0.1231
     26  CA        44.3140  -13.5690   34.1710 C.3    37  LYS37       0.1693
     27  C         43.6950  -12.5970   35.1730 C.2    37  LYS37       0.2593
     28  O         43.1020  -11.5850   34.7830 O.2    37  LYS37      -0.2718
     29  CB        45.7610  -13.2040   33.8620 C.3    37  LYS37       0.0285
     30  CG        46.7480  -13.3900   35.0010 C.3    37  LYS37       0.0035
     31  CD        48.1540  -13.0960   34.5070 C.3    37  LYS37       0.0206
     32  CE        49.1750  -13.1230   35.6230 C.3    37  LYS37       0.1093
     33  NZ        50.5500  -12.9540   35.0690 N.3    37  LYS37      -0.1314
     34  N         43.8060  -12.9040   36.4620 N.am   38  SER38      -0.1938
     35  CA        43.2850  -11.9950   37.4710 C.3    38  SER38       0.2055
     36  C         43.7300  -10.5730   37.1260 C.2    38  SER38       0.2643
     37  O         44.8270  -10.3680   36.5970 O.2    38  SER38      -0.2714
     38  CB        43.7300  -12.4030   38.8790 C.3    38  SER38       0.2130
     39  OG        45.1420  -12.3910   39.0090 O.3    38  SER38      -0.2179
     40  N         42.8690   -9.6030   37.4210 N.am   39  LEU39      -0.1963
     41  CA        43.0810   -8.2170   37.0040 C.3    39  LEU39       0.1728
     42  C         43.8270   -7.3970   38.0510 C.2    39  LEU39       0.2616
     43  O         43.5830   -7.5230   39.2550 O.2    39  LEU39      -0.2715
     44  CB        41.7370   -7.5480   36.6980 C.3    39  LEU39       0.0311
     45  CG        41.0320   -8.0180   35.4260 C.3    39  LEU39       0.0022
     46  CD1       39.8090   -7.1660   35.1590 C.3    39  LEU39       0.0001
     47  CD2       41.9920   -7.9790   34.2460 C.3    39  LEU39       0.0001
     48  N         44.7320   -6.5490   37.5690 N.am   40  ALA40      -0.1963
     49  CA        45.4620   -5.6260   38.4230 C.3    40  ALA40       0.1728
     50  C         44.7190   -4.3010   38.5650 C.2    40  ALA40       0.2616
     51  O         43.8100   -3.9920   37.7940 O.2    40  ALA40      -0.2715
     52  CB        46.8580   -5.3890   37.8760 C.3    40  ALA40       0.0334
     53  N         45.1160   -3.5180   39.5590 N.am   41  ALA41      -0.1977
     54  CA        44.5420   -2.2030   39.7640 C.3    41  ALA41       0.1597
     55  C         45.5880   -1.2690   40.3460 C.2    41  ALA41       0.2287
     56  O         46.5720   -1.7210   40.9290 O.2    41  ALA41      -0.2864
     57  CB        43.3240   -2.2870   40.6720 C.3    41  ALA41       0.0319
     58  N         46.0580  -10.9820   30.7650 N.3    54  GLN54      -0.1245
     59  CA        45.1730  -10.0710   31.4680 C.3    54  GLN54       0.1566
     60  C         44.3220   -9.2730   30.4880 C.2    54  GLN54       0.2260
     61  O         43.3160   -8.6790   30.8730 O.2    54  GLN54      -0.2867
     62  CB        45.9800   -9.1220   32.3540 C.3    54  GLN54       0.0367
     63  CG        46.7060   -9.8120   33.4910 C.3    54  GLN54       0.0905
     64  CD        47.4640   -8.8410   34.3660 C.2    54  GLN54       0.2608
     65  OE1       48.2440   -8.0210   33.8760 O.2    54  GLN54      -0.2717
     66  NE2       47.2420   -8.9280   35.6730 N.am   54  GLN54      -0.0878
     67  N         34.0680  -22.2760   42.9730 N.3   101  GLY101     -0.1225
     68  CA        35.1290  -21.2980   43.2040 C.3   101  GLY101      0.1811
     69  C         34.6560  -19.8710   43.3900 C.2   101  GLY101      0.2280
     70  O         35.4240  -18.9240   43.2220 O.2   101  GLY101     -0.2866
     71  N         34.3780  -12.3300   36.7060 N.3   240  PHE240     -0.1241
     72  CA        34.2130  -13.4170   37.6510 C.3   240  PHE240      0.1605
     73  C         34.9560  -13.0550   38.9270 C.2   240  PHE240      0.2264
     74  O         36.0970  -12.5970   38.8750 O.2   240  PHE240     -0.2867
     75  CB        34.7200  -14.7350   37.0740 C.3   240  PHE240      0.0534
     76  CG        34.6870  -15.8740   38.0540 C.ar  240  PHE240     -0.0203
     77  CD1       35.8500  -16.3100   38.6720 C.ar  240  PHE240     -0.0042
     78  CD2       33.4930  -16.5040   38.3640 C.ar  240  PHE240     -0.0042
     79  CE1       35.8220  -17.3560   39.5780 C.ar  240  PHE240     -0.0003
     80  CE2       33.4600  -17.5500   39.2700 C.ar  240  PHE240     -0.0003
     81  CZ        34.6270  -17.9770   39.8760 C.ar  240  PHE240     -0.0000
     82  N         36.6260  -14.4300   42.2930 N.3   242  ASN242     -0.1225
     83  CA        37.1200  -15.5750   43.0350 C.3   242  ASN242      0.1785
     84  C         36.8010  -15.4470   44.5150 C.2   242  ASN242      0.2598
     85  O         36.5110  -14.3540   45.0020 O.2   242  ASN242     -0.2718
     86  CB        38.6250  -15.7460   42.8310 C.3   242  ASN242      0.1169
     87  CG        38.9770  -16.2510   41.4430 C.2   242  ASN242      0.2627
     88  OD1       38.6290  -17.3710   41.0710 O.2   242  ASN242     -0.2716
     89  ND2       39.6890  -15.4300   40.6760 N.am  242  ASN242     -0.0877
     90  N         36.8580  -16.5680   45.2280 N.am  243  THR243     -0.1939
     91  CA        36.6010  -16.5840   46.6610 C.3   243  THR243      0.2028
     92  C         37.4520  -15.5380   47.3720 C.2   243  THR243      0.2642
     93  O         37.0160  -14.9350   48.3540 O.2   243  THR243     -0.2714
     94  CB        36.8770  -17.9710   47.2710 C.3   243  THR243      0.1808
     95  OG1       36.2520  -18.9810   46.4700 O.3   243  THR243     -0.2208
     96  CG2       36.3380  -18.0520   48.6950 C.3   243  THR243      0.0379
     97  N         38.6590  -15.3270   46.8540 N.am  244  SER244     -0.1949
     98  CA        39.6380  -14.4270   47.4560 C.3   244  SER244      0.1924
     99  C         39.3150  -12.9600   47.2200 C.2   244  SER244      0.2314
    100  O         39.7620  -12.0920   47.9650 O.2   244  SER244     -0.2863
    101  CB        41.0220  -14.7190   46.8890 C.3   244  SER244      0.2116
    102  OG        41.0470  -14.4370   45.5010 O.3   244  SER244     -0.2180
    103  N         39.8240  -11.7090   44.0080 N.3   246  THR246     -0.1218
    104  CA        40.4380  -11.4530   42.7070 C.3   246  THR246      0.1862
    105  C         39.4020  -11.6250   41.6010 C.2   246  THR246      0.2287
    106  O         38.4790  -12.4350   41.7200 O.2   246  THR246     -0.2866
    107  CB        41.6470  -12.3740   42.4420 C.3   246  THR246      0.1770
    108  OG1       41.2210  -13.7410   42.4430 O.3   246  THR246     -0.2211
    109  CG2       42.7170  -12.1700   43.5110 C.3   246  THR246      0.0375
    110  N         38.5330  -11.8210   37.2460 N.3   248  GLN248     -0.1245
    111  CA        38.9960  -12.0440   35.8820 C.3   248  GLN248      0.1566
    112  C         37.8380  -11.8870   34.8960 C.2   248  GLN248      0.2260
    113  O         36.7040  -12.2730   35.1870 O.2   248  GLN248     -0.2867
    114  CB        39.6570  -13.4240   35.7550 C.3   248  GLN248      0.0367
    115  CG        39.1830  -14.4370   36.7810 C.3   248  GLN248      0.0905
    116  CD        40.1780  -15.5710   37.0140 C.2   248  GLN248      0.2608
    117  OE1       40.1610  -16.2100   38.0640 O.2   248  GLN248     -0.2717
    118  NE2       41.0380  -15.8280   36.0320 N.am  248  GLN248     -0.0878
@<TRIPOS>BOND
     1    20    19    2
     2    17    18    1
     3    60    61    2
     4    60    59    1
     5    58    59    1
     6    11    10    2
     7    19    18    1
     8     1     7    1
     9     1     2    1
    10    10     9    1
    11    59    62    1
    12    18    21    1
    13     4     3    2
    14     7     6    1
    15     3     2    1
    16     2     5    1
    17    62    63    1
    18     8     9    1
    19     9    12    1
    20    21    22    1
    21    25    26    1
    22     6     5    1
    23    63    64    1
    24    22    24    1
    25    22    23    1
    26    12    13    1
    27    29    26    1
    28    29    30    1
    29    65    64    2
    30    26    27    1
    31    47    45    1
    32    64    66   am
    33    31    30    1
    34    31    32    1
    35    28    27    2
    36   112   113    2
    37   112   111    1
    38    33    32    1
    39    13    14    1
    40    46    45    1
    41    27    34   am
    42    45    44    1
    43    16    14   am
    44   114   111    1
    45   114   115    1
    46    14    15    2
    47   111   110    1
    48   118   116   am
    49    34    35    1
    50    37    36    2
    51    44    41    1
    52    71    72    1
    53   115   116    1
    54    41    40    1
    55    41    42    1
    56   116   117    2
    57    75    72    1
    58    75    76    1
    59    36    40   am
    60    36    35    1
    61    35    38    1
    62    48    42   am
    63    48    49    1
    64    72    73    1
    65    51    50    2
    66    52    49    1
    67    42    43    2
    68    76    78   ar
    69    76    77   ar
    70    78    80   ar
    71    49    50    1
    72    50    53   am
    73    77    79   ar
    74    74    73    2
    75    38    39    1
    76    80    81   ar
    77    53    54    1
    78    79    81   ar
    79    54    55    1
    80    54    57    1
    81    55    56    2
    82    89    87   am
    83    88    87    2
    84    87    86    1
    85   105   106    2
    86   105   104    1
    87    82    83    1
    88   107   108    1
    89   107   104    1
    90   107   109    1
    91   104   103    1
    92    86    83    1
    93    67    68    1
    94    83    84    1
    95    68    69    1
    96    70    69    2
    97    84    85    2
    98    84    90   am
    99    90    91    1
   100   102   101    1
   101    95    94    1
   102    91    94    1
   103    91    92    1
   104    97    92   am
   105    97    98    1
   106   101    98    1
   107    99    98    1
   108    99   100    2
   109    94    96    1
   110    92    93    2
