@<TRIPOS>MOLECULE
tmp/3bx5A00.pdb
 182 173 0 0 0
SMALL
GASTEIGER

@<TRIPOS>ATOM
      1  N         -8.4870   35.2320   11.1940 N.3    26  VAL26      -0.1231
      2  CA        -7.1370   35.7160   10.9360 C.3    26  VAL26       0.1692
      3  C         -6.0150   34.6880   10.8740 C.2    26  VAL26       0.2592
      4  O         -6.1330   33.5660   11.3810 O.2    26  VAL26      -0.2718
      5  CB        -6.7750   36.8900   11.8390 C.3    26  VAL26       0.0266
      6  CG1       -6.1590   37.9990   11.0140 C.3    26  VAL26       0.0020
      7  CG2       -8.0080   37.3940   12.5780 C.3    26  VAL26       0.0020
      8  N         -4.9240   35.1100   10.2390 N.am   27  GLY27      -0.1957
      9  CA        -3.6890   34.3650   10.0580 C.3    27  GLY27       0.1869
     10  C         -3.7380   32.8500   10.0720 C.2    27  GLY27       0.2309
     11  O         -3.0860   32.2220   10.9130 O.2    27  GLY27      -0.2863
     12  N         -2.1270   31.2860   14.8570 N.3    31  TYR31      -0.1241
     13  CA        -2.1790   31.6650   16.2680 C.3    31  TYR31       0.1605
     14  C         -3.3590   30.9820   16.9520 C.2    31  TYR31       0.2264
     15  O         -3.7810   31.3940   18.0380 O.2    31  TYR31      -0.2867
     16  CB        -2.3050   33.1790   16.4350 C.3    31  TYR31       0.0534
     17  CG        -1.6550   33.9750   15.3330 C.ar   31  TYR31      -0.0201
     18  CD1       -2.3450   34.2560   14.1590 C.ar   31  TYR31      -0.0009
     19  CD2       -0.3550   34.4560   15.4660 C.ar   31  TYR31      -0.0009
     20  CE1       -1.7620   34.9940   13.1520 C.ar   31  TYR31       0.0417
     21  CE2        0.2360   35.1900   14.4630 C.ar   31  TYR31       0.0417
     22  CZ        -0.4730   35.4560   13.3060 C.ar   31  TYR31       0.1957
     23  OH         0.1080   36.1920   12.2970 O.3    31  TYR31      -0.2866
     24  N         -8.2720   32.2360   15.9940 N.3    34  VAL34      -0.1245
     25  CA        -8.3220   33.6770   16.2390 C.3    34  VAL34       0.1561
     26  C         -9.0700   34.4350   15.1710 C.2    34  VAL34       0.2260
     27  O         -8.8750   34.2100   13.9790 O.2    34  VAL34      -0.2867
     28  CB        -6.9260   34.2880   16.3990 C.3    34  VAL34       0.0252
     29  CG1       -7.0360   35.7810   16.5080 C.3    34  VAL34       0.0019
     30  CG2       -6.2380   33.7210   17.6190 C.3    34  VAL34       0.0019
     31  N         -8.1530   41.2070   18.7920 N.3    47  ALA47      -0.1231
     32  CA        -8.0100   39.8620   18.2730 C.3    47  ALA47       0.1694
     33  C         -8.8070   38.9880   19.2310 C.2    47  ALA47       0.2592
     34  O         -8.7420   39.1630   20.4560 O.2    47  ALA47      -0.2718
     35  CB        -6.5390   39.4420   18.2460 C.3    47  ALA47       0.0304
     36  N         -9.6060   38.0910   18.6710 N.am   48  VAL48      -0.1966
     37  CA       -10.4440   37.2230   19.4750 C.3    48  VAL48       0.1727
     38  C        -10.0380   35.7740   19.2370 C.2    48  VAL48       0.2616
     39  O         -9.9790   35.3210   18.1000 O.2    48  VAL48      -0.2715
     40  CB       -11.9350   37.4800   19.2010 C.3    48  VAL48       0.0290
     41  CG1      -12.7950   36.7560   20.1860 C.3    48  VAL48       0.0023
     42  CG2      -12.2220   38.9670   19.2510 C.3    48  VAL48       0.0023
     43  N         -9.6690   35.0830   20.3110 N.am   49  LYS49      -0.1977
     44  CA        -9.2650   33.6880   20.2180 C.3    49  LYS49       0.1596
     45  C        -10.2560   32.8170   20.9720 C.2    49  LYS49       0.2287
     46  O        -10.4220   32.9750   22.1780 O.2    49  LYS49      -0.2864
     47  CB        -7.8870   33.4910   20.8480 C.3    49  LYS49       0.0298
     48  CG        -7.3410   32.0700   20.7400 C.3    49  LYS49       0.0038
     49  CD        -6.3250   31.7870   21.8340 C.3    49  LYS49       0.0206
     50  CE        -5.0210   31.2730   21.2700 C.3    49  LYS49       0.1093
     51  NZ        -3.8770   31.5260   22.2020 N.3    49  LYS49      -0.1314
     52  N         -3.2220   29.3270   30.3930 N.3    67  GLU67      -0.1245
     53  CA        -3.3060   30.4690   29.5070 C.3    67  GLU67       0.1567
     54  C         -3.9730   31.6770   30.1500 C.2    67  GLU67       0.2260
     55  O         -3.4210   32.7700   30.1600 O.2    67  GLU67      -0.2867
     56  CB        -3.9650   30.1390   28.1710 C.3    67  GLU67       0.0388
     57  CG        -3.8240   31.2910   27.1780 C.3    67  GLU67       0.1160
     58  CD        -3.8770   30.8690   25.7130 C.2    67  GLU67       0.3649
     59  OE1       -4.3220   29.7400   25.4120 O.co2  67  GLU67      -0.2457
     60  OE2       -3.5540   31.7160   24.8450 O.co2  67  GLU67      -0.2457
     61  N         -1.7700   33.3830   32.8510 N.3    70  LEU70      -0.1231
     62  CA        -0.6520   34.1040   32.2600 C.3    70  LEU70       0.1693
     63  C         -1.1060   35.4170   31.6500 C.2    70  LEU70       0.2591
     64  O         -0.5160   36.4700   31.9100 O.2    70  LEU70      -0.2718
     65  CB        -0.0170   33.2430   31.1700 C.3    70  LEU70       0.0284
     66  CG         1.3650   32.6190   31.3620 C.3    70  LEU70       0.0019
     67  CD1        1.8020   32.7150   32.8060 C.3    70  LEU70       0.0001
     68  CD2        1.3910   31.1760   30.8490 C.3    70  LEU70       0.0001
     69  N         -2.1370   35.3600   30.8090 N.am   71  LEU71      -0.1980
     70  CA        -2.6380   36.5670   30.1470 C.3    71  LEU71       0.1596
     71  C         -3.1350   37.6240   31.1510 C.2    71  LEU71       0.2287
     72  O         -2.8930   38.8280   30.9850 O.2    71  LEU71      -0.2864
     73  CB        -3.7100   36.2040   29.1040 C.3    71  LEU71       0.0297
     74  CG        -3.0420   35.6290   27.8480 C.3    71  LEU71       0.0022
     75  CD1       -4.0200   34.9510   26.9180 C.3    71  LEU71       0.0001
     76  CD2       -2.2090   36.6820   27.1080 C.3    71  LEU71       0.0001
     77  N          1.9150   40.7690   25.0390 N.3    80  ILE80      -0.1245
     78  CA         0.4600   40.7690   24.8380 C.3    80  ILE80       0.1561
     79  C         -0.2870   40.6680   26.1630 C.2    80  ILE80       0.2260
     80  O          0.0900   39.8920   27.0660 O.2    80  ILE80      -0.2867
     81  CB        -0.0040   39.7200   23.8140 C.3    80  ILE80       0.0252
     82  CG1       -1.3550   40.1140   23.2280 C.3    80  ILE80       0.0019
     83  CG2       -0.0530   38.3320   24.4220 C.3    80  ILE80       0.0019
     84  CD1       -1.2920   41.3130   22.3040 C.3    80  ILE80       0.0001
     85  N        -10.7030   34.6320   24.4620 N.3   100  LEU100     -0.1245
     86  CA        -9.7560   35.6230   24.9920 C.3   100  LEU100      0.1561
     87  C         -9.5750   36.7620   23.9970 C.2   100  LEU100      0.2260
     88  O         -9.5810   36.5420   22.7740 O.2   100  LEU100     -0.2867
     89  CB        -8.4040   35.0050   25.3550 C.3   100  LEU100      0.0270
     90  CG        -8.4220   33.7010   26.1570 C.3   100  LEU100      0.0019
     91  CD1       -7.0960   32.9800   25.9650 C.3   100  LEU100      0.0001
     92  CD2       -8.6470   34.0190   27.6190 C.3   100  LEU100      0.0001
     93  N         -7.3220   40.2790   23.0060 N.3   102  THR102     -0.1203
     94  CA        -6.1400   41.1160   23.1530 C.3   102  THR102      0.1994
     95  C         -6.2210   42.1690   22.0450 C.2   102  THR102      0.2618
     96  O         -7.0740   42.0760   21.1600 O.2   102  THR102     -0.2717
     97  CB        -4.8220   40.2770   22.9910 C.3   102  THR102      0.1784
     98  OG1       -4.7190   39.7650   21.6450 O.3   102  THR102     -0.2211
     99  CG2       -4.7530   39.1150   24.0070 C.3   102  THR102      0.0376
    100  N         -5.2960   43.1270   22.0640 N.am  103  HIS103     -0.1961
    101  CA        -5.1650   44.1240   21.0080 C.3   103  HIS103      0.1787
    102  C         -4.8520   43.3460   19.7270 C.2   103  HIS103      0.2620
    103  O         -4.2130   42.2720   19.7760 O.2   103  HIS103     -0.2715
    104  CB        -3.9280   44.9920   21.2800 C.3   103  HIS103      0.0785
    105  CG        -4.1510   46.0820   22.2740 C.ar  103  HIS103      0.0821
    106  ND1       -5.1060   47.0650   22.1030 N.ar  103  HIS103     -0.2267
    107  CD2       -3.5220   46.3650   23.4370 C.ar  103  HIS103      0.1154
    108  CE1       -5.0810   47.8810   23.1420 C.ar  103  HIS103      0.1986
    109  NE2       -4.1160   47.4900   23.9560 N.ar  103  HIS103     -0.2212
    110  N         -5.2190   43.9160   18.5820 N.am  104  LEU104     -0.1963
    111  CA        -4.9020   43.2740   17.3070 C.3   104  LEU104      0.1728
    112  C         -3.5980   43.8790   16.7740 C.2   104  LEU104      0.2616
    113  O         -3.4680   45.1000   16.6710 O.2   104  LEU104     -0.2715
    114  CB        -6.0340   43.5240   16.3130 C.3   104  LEU104      0.0311
    115  CG        -6.3350   42.5870   15.1380 C.3   104  LEU104      0.0022
    116  CD1       -6.0960   43.2570   13.7990 C.3   104  LEU104      0.0001
    117  CD2       -5.7300   41.1940   15.2040 C.3   104  LEU104      0.0001
    118  N         -2.6160   43.0350   16.4770 N.am  105  MET105     -0.1963
    119  CA        -1.3360   43.5220   15.9420 C.3   105  MET105      0.1736
    120  C         -1.3520   43.3510   14.4300 C.2   105  MET105      0.2617
    121  O         -1.9610   42.4060   13.9220 O.2   105  MET105     -0.2715
    122  CB        -0.1460   42.7510   16.5350 C.3   105  MET105      0.0427
    123  CG        -0.1630   42.6300   18.0400 C.3   105  MET105      0.0599
    124  SD        -0.1290   44.2180   18.8950 S.3   105  MET105     -0.1393
    125  CE         1.4330   44.9520   18.3020 C.3   105  MET105      0.0692
    126  N         -0.6610   44.2480   13.7280 N.am  106  GLY106     -0.1940
    127  CA        -0.5930   44.2880   12.2740 C.3   106  GLY106      0.2014
    128  C          0.0080   43.0910   11.5660 C.2   106  GLY106      0.2639
    129  O         -0.5640   42.5760   10.6110 O.2   106  GLY106     -0.2714
    130  N          1.1950   42.6870   11.9900 N.am  107  ALA107     -0.1963
    131  CA         1.8820   41.5560   11.3700 C.3   107  ALA107      0.1728
    132  C          2.7960   40.8770   12.3870 C.2   107  ALA107      0.2616
    133  O          2.8540   41.2770   13.5410 O.2   107  ALA107     -0.2715
    134  CB         2.6920   42.0220   10.1560 C.3   107  ALA107      0.0334
    135  N          3.4810   39.8300   11.9470 N.am  108  ASP108     -0.1971
    136  CA         4.4340   39.1110   12.7770 C.3   108  ASP108      0.1709
    137  C          5.7670   39.1080   12.0290 C.2   108  ASP108      0.2293
    138  O          5.7840   39.2940   10.8200 O.2   108  ASP108     -0.2864
    139  CB         3.9340   37.6940   13.1040 C.3   108  ASP108      0.1436
    140  CG         3.9640   36.7560   11.9070 C.2   108  ASP108      0.3671
    141  OD1        4.5820   37.1020   10.8880 O.co2 108  ASP108     -0.2456
    142  OD2        3.3950   35.6420   11.9900 O.co2 108  ASP108     -0.2456
    143  N          4.7450   39.9110   17.3620 N.3   153  ALA153     -0.1245
    144  CA         3.7550   40.7020   16.6310 C.3   153  ALA153      0.1562
    145  C          4.1070   42.1800   16.6310 C.2   153  ALA153      0.2260
    146  O          4.4300   42.7610   17.6620 O.2   153  ALA153     -0.2867
    147  CB         2.3760   40.4980   17.2290 C.3   153  ALA153      0.0290
    148  N          4.0600   37.1850   21.9700 N.3   163  LEU163     -0.1231
    149  CA         2.8770   36.3710   22.1300 C.3   163  LEU163      0.1693
    150  C          3.2020   34.9370   22.4750 C.2   163  LEU163      0.2592
    151  O          4.3120   34.4360   22.2140 O.2   163  LEU163     -0.2718
    152  CB         2.0960   36.2900   20.8260 C.3   163  LEU163      0.0284
    153  CG         2.0080   37.3940   19.7850 C.3   163  LEU163      0.0019
    154  CD1        1.6430   36.6600   18.5000 C.3   163  LEU163      0.0001
    155  CD2        0.8930   38.3610   20.1940 C.3   163  LEU163      0.0001
    156  N          2.1620   34.2480   22.9290 N.am  164  ASP164     -0.1960
    157  CA         2.2050   32.8070   23.1190 C.3   164  ASP164      0.1840
    158  C          3.2700   32.3060   24.0700 C.2   164  ASP164      0.2622
    159  O          3.6740   31.1550   23.9750 O.2   164  ASP164     -0.2715
    160  CB         2.3660   32.1360   21.7480 C.3   164  ASP164      0.1450
    161  CG         1.1570   32.3680   20.8310 C.2   164  ASP164      0.3671
    162  OD1        0.1910   33.0580   21.2410 O.co2 164  ASP164     -0.2456
    163  OD2        1.1660   31.8420   19.6920 O.co2 164  ASP164     -0.2456
    164  N          3.6940   33.1780   24.9840 N.am  165  PHE165     -0.1974
    165  CA         4.6920   32.8690   26.0150 C.3   165  PHE165      0.1639
    166  C          4.1230   31.9310   27.0700 C.2   165  PHE165      0.2290
    167  O          2.9100   31.9550   27.3560 O.2   165  PHE165     -0.2864
    168  CB         5.0610   34.1520   26.7630 C.3   165  PHE165      0.0560
    169  CG         3.8690   34.9970   27.0940 C.ar  165  PHE165     -0.0200
    170  CD1        3.0530   34.6680   28.1610 C.ar  165  PHE165     -0.0042
    171  CD2        3.4740   36.0190   26.2470 C.ar  165  PHE165     -0.0042
    172  CE1        1.9080   35.4020   28.4280 C.ar  165  PHE165     -0.0003
    173  CE2        2.3250   36.7450   26.5000 C.ar  165  PHE165     -0.0003
    174  CZ         1.5430   36.4400   27.5920 C.ar  165  PHE165     -0.0000
    175  N          3.5510   28.7790   27.2880 N.3   167  LEU167     -0.1245
    176  CA         2.6250   27.7010   26.9860 C.3   167  LEU167      0.1561
    177  C          3.4030   26.4170   26.6950 C.2   167  LEU167      0.2260
    178  O          3.1280   25.3600   27.2820 O.2   167  LEU167     -0.2867
    179  CB         1.7390   28.0780   25.7970 C.3   167  LEU167      0.0270
    180  CG         0.6760   29.1610   26.0380 C.3   167  LEU167      0.0019
    181  CD1       -0.2640   29.2810   24.8290 C.3   167  LEU167      0.0001
    182  CD2       -0.1100   28.8460   27.3090 C.3   167  LEU167      0.0001
@<TRIPOS>BOND
     1     9    10    1
     2     9     8    1
     3    10    11    2
     4   134   131    1
     5     8     3   am
     6   129   128    2
     7   138   137    2
     8     3     2    1
     9     3     4    2
    10   141   140   ar
    11     2     1    1
    12     2     5    1
    13     6     5    1
    14   131   130    1
    15   131   132    1
    16   128   130   am
    17   128   127    1
    18     5     7    1
    19   140   142   ar
    20   140   139    1
    21   135   132   am
    22   135   136    1
    23   137   136    1
    24   127   126    1
    25    23    22    1
    26   132   133    2
    27   136   139    1
    28    20    22   ar
    29    20    18   ar
    30    22    21   ar
    31   126   120   am
    32   116   115    1
    33   121   120    2
    34    27    26    2
    35    18    17   ar
    36   120   119    1
    37    21    19   ar
    38    12    13    1
    39   115   117    1
    40   115   114    1
    41    26    25    1
    42    17    19   ar
    43    17    16    1
    44   119   118    1
    45   119   122    1
    46    24    25    1
    47    25    28    1
    48    13    16    1
    49    13    14    1
    50   114   111    1
    51    28    29    1
    52    28    30    1
    53   118   112   am
    54   122   123    1
    55   144   145    1
    56   144   147    1
    57   144   143    1
    58   145   146    2
    59   113   112    2
    60   112   111    1
    61    14    15    2
    62   111   110    1
    63   123   124    1
    64    39    38    2
    65    35    32    1
    66    32    31    1
    67    32    33    1
    68   125   124    1
    69   154   153    1
    70   110   102   am
    71    36    33   am
    72    36    37    1
    73    40    42    1
    74    40    37    1
    75    40    41    1
    76    33    34    2
    77    38    37    1
    78    38    43   am
    79   163   161   ar
    80   102   103    2
    81   102   101    1
    82   153   155    1
    83   153   152    1
    84    44    43    1
    85    44    47    1
    86    44    45    1
    87    48    47    1
    88    48    49    1
    89   152   149    1
    90   161   162   ar
    91   161   160    1
    92    45    46    2
    93   101   104    1
    94   101   100    1
    95    96    95    2
    96    50    49    1
    97    50    51    1
    98   104   105    1
    99    98    97    1
   100   160   157    1
   101   148   149    1
   102    95   100   am
   103    95    94    1
   104   106   105   ar
   105   106   108   ar
   106   149   150    1
   107   151   150    2
   108   105   107   ar
   109    84    82    1
   110   150   156   am
   111    88    87    2
   112   156   157    1
   113    97    94    1
   114    97    99    1
   115    93    94    1
   116   157   158    1
   117   108   109   ar
   118    82    81    1
   119   107   109   ar
   120    81    83    1
   121    81    78    1
   122   159   158    2
   123    87    86    1
   124   158   164   am
   125    85    86    1
   126   181   180    1
   127    78    77    1
   128    78    79    1
   129    60    58   ar
   130   164   165    1
   131    86    89    1
   132    89    90    1
   133    59    58   ar
   134    58    57    1
   135   179   180    1
   136   179   176    1
   137    91    90    1
   138   165   168    1
   139   165   166    1
   140   180   182    1
   141    90    92    1
   142    79    80    2
   143   171   173   ar
   144   171   169   ar
   145   173   174   ar
   146   177   176    1
   147   177   178    2
   148   168   169    1
   149    75    74    1
   150   176   175    1
   151   166   167    2
   152   169   170   ar
   153    76    74    1
   154    57    56    1
   155   174   172   ar
   156    74    73    1
   157   170   172   ar
   158    56    53    1
   159    73    70    1
   160    53    54    1
   161    53    52    1
   162    70    69    1
   163    70    71    1
   164    54    55    2
   165    69    63   am
   166    68    66    1
   167    72    71    2
   168    65    66    1
   169    65    62    1
   170    66    67    1
   171    63    64    2
   172    63    62    1
   173    62    61    1
