@<TRIPOS>MOLECULE
tmp/3bx8D00.pdb
 179 165 0 0 0
SMALL
GASTEIGER

@<TRIPOS>ATOM
      1  N        -15.4250   -6.8070  -12.2600 N.3    33  LEU33      -0.1245
      2  CA       -16.1160   -5.9500  -13.2160 C.3    33  LEU33       0.1561
      3  C        -17.5120   -5.5990  -12.6910 C.2    33  LEU33       0.2260
      4  O        -18.2770   -6.4820  -12.3180 O.2    33  LEU33      -0.2867
      5  CB       -16.2330   -6.6680  -14.5610 C.3    33  LEU33       0.0270
      6  CG       -17.0820   -5.9830  -15.6370 C.3    33  LEU33       0.0019
      7  CD1      -16.5000   -4.5960  -15.9720 C.3    33  LEU33       0.0001
      8  CD2      -17.1360   -6.8820  -16.8870 C.3    33  LEU33       0.0001
      9  N        -24.0040   -4.8220  -16.2200 N.3    38  ILE38      -0.1245
     10  CA       -23.4410   -6.0810  -15.7510 C.3    38  ILE38       0.1561
     11  C        -24.4540   -6.7830  -14.8360 C.2    38  ILE38       0.2260
     12  O        -24.9660   -6.1820  -13.9010 O.2    38  ILE38      -0.2867
     13  CB       -22.1360   -5.8310  -14.9340 C.3    38  ILE38       0.0252
     14  CG1      -21.1200   -5.0580  -15.7800 C.3    38  ILE38       0.0019
     15  CG2      -21.5480   -7.1520  -14.4490 C.3    38  ILE38       0.0019
     16  CD1      -20.6810   -5.7790  -17.0440 C.3    38  ILE38       0.0001
     17  N        -18.4400  -15.4110  -16.1860 N.3    46  MET46      -0.1245
     18  CA       -17.7020  -14.7260  -17.2340 C.3    46  MET46       0.1570
     19  C        -16.2320  -15.1210  -17.1450 C.2    46  MET46       0.2261
     20  O        -15.6680  -15.1750  -16.0590 O.2    46  MET46      -0.2867
     21  CB       -17.8430  -13.2160  -17.0470 C.3    46  MET46       0.0387
     22  CG       -17.1140  -12.3760  -18.0570 C.3    46  MET46       0.0595
     23  SD       -17.2160  -10.6350  -17.6270 S.3    46  MET46      -0.1393
     24  CE       -18.8470  -10.2230  -18.2330 C.3    46  MET46       0.0692
     25  N        -10.5190  -11.8980  -18.8560 N.3    49  TYR49      -0.1241
     26  CA        -9.8900  -11.4380  -20.0920 C.3    49  TYR49       0.1605
     27  C         -8.8010  -10.4460  -19.7070 C.2    49  TYR49       0.2264
     28  O         -8.6990  -10.0560  -18.5390 O.2    49  TYR49      -0.2867
     29  CB       -10.9050  -10.7770  -21.0460 C.3    49  TYR49       0.0534
     30  CG       -11.6770   -9.5760  -20.5180 C.ar   49  TYR49      -0.0201
     31  CD1      -12.7390   -9.7410  -19.6250 C.ar   49  TYR49      -0.0009
     32  CD2      -11.3840   -8.2810  -20.9580 C.ar   49  TYR49      -0.0009
     33  CE1      -13.4940   -8.6520  -19.1850 C.ar   49  TYR49       0.0417
     34  CE2      -12.1380   -7.1780  -20.5240 C.ar   49  TYR49       0.0417
     35  CZ       -13.1910   -7.3740  -19.6380 C.ar   49  TYR49       0.1957
     36  OH       -13.9500   -6.3020  -19.1980 O.3    49  TYR49      -0.2866
     37  N         -6.3490   -6.7940  -20.7520 N.3    51  THR51      -0.1218
     38  CA        -6.2750   -5.5300  -21.4730 C.3    51  THR51       0.1862
     39  C         -4.8280   -5.0560  -21.3700 C.2    51  THR51       0.2287
     40  O         -4.2380   -5.0490  -20.2880 O.2    51  THR51      -0.2866
     41  CB        -7.2040   -4.4560  -20.8590 C.3    51  THR51       0.1770
     42  OG1       -8.5560   -4.9270  -20.8530 O.3    51  THR51      -0.2211
     43  CG2       -7.1640   -3.1910  -21.6820 C.3    51  THR51       0.0375
     44  N         -2.1590   -1.9490  -22.1240 N.3    53  TYR53      -0.1241
     45  CA        -2.0210   -0.5200  -22.3910 C.3    53  TYR53       0.1605
     46  C         -0.5900   -0.2020  -22.8240 C.2    53  TYR53       0.2264
     47  O          0.3390   -0.2630  -22.0210 O.2    53  TYR53      -0.2867
     48  CB        -2.3850    0.2730  -21.1430 C.3    53  TYR53       0.0534
     49  CG        -3.8590    0.1950  -20.7870 C.ar   53  TYR53      -0.0201
     50  CD1       -4.7330    1.2290  -21.1310 C.ar   53  TYR53      -0.0009
     51  CD2       -4.3770   -0.9060  -20.0990 C.ar   53  TYR53      -0.0009
     52  CE1       -6.0870    1.1700  -20.7940 C.ar   53  TYR53       0.0417
     53  CE2       -5.7330   -0.9760  -19.7560 C.ar   53  TYR53       0.0417
     54  CZ        -6.5790    0.0650  -20.1070 C.ar   53  TYR53       0.1957
     55  OH        -7.9180    0.0100  -19.7760 O.3    53  TYR53      -0.2866
     56  N         -4.7930    0.4150  -26.7480 N.3    63  VAL63      -0.1245
     57  CA        -5.4160   -0.4760  -25.7750 C.3    63  VAL63       0.1561
     58  C         -5.9020   -1.7510  -26.4320 C.2    63  VAL63       0.2260
     59  O         -6.8640   -1.7300  -27.2020 O.2    63  VAL63      -0.2867
     60  CB        -6.6180    0.2280  -25.1130 C.3    63  VAL63       0.0252
     61  CG1       -7.1610   -0.6130  -23.9680 C.3    63  VAL63       0.0019
     62  CG2       -6.1940    1.6030  -24.6190 C.3    63  VAL63       0.0019
     63  N         -7.4650   -5.5910  -26.0970 N.3    65  SER65      -0.1217
     64  CA        -8.2000   -6.5080  -25.2410 C.3    65  SER65       0.1889
     65  C         -8.0660   -7.9040  -25.8290 C.2    65  SER65       0.2288
     66  O         -8.2410   -8.1020  -27.0290 O.2    65  SER65      -0.2866
     67  CB        -9.6640   -6.0850  -25.1470 C.3    65  SER65       0.2089
     68  OG        -9.7840   -4.8680  -24.4240 O.3    65  SER65      -0.2183
     69  N         -9.4990  -11.6820  -25.4900 N.3    67  ILE67      -0.1245
     70  CA       -10.5850  -12.4860  -24.9560 C.3    67  ILE67       0.1561
     71  C        -10.6160  -13.8990  -25.5240 C.2    67  ILE67       0.2260
     72  O        -10.2500  -14.1280  -26.6780 O.2    67  ILE67      -0.2867
     73  CB       -11.9420  -11.7980  -25.2330 C.3    67  ILE67       0.0252
     74  CG1      -12.0270  -10.4970  -24.4320 C.3    67  ILE67       0.0019
     75  CG2      -13.0930  -12.7270  -24.8900 C.3    67  ILE67       0.0019
     76  CD1      -13.3070   -9.7050  -24.6630 C.3    67  ILE67       0.0001
     77  N         -8.3160   -0.3450  -29.3080 N.3    78  ALA78      -0.1245
     78  CA        -8.9450    0.9570  -29.1890 C.3    78  ALA78       0.1562
     79  C         -7.8340    1.9290  -28.8080 C.2    78  ALA78       0.2260
     80  O         -6.7980    1.5160  -28.2910 O.2    78  ALA78      -0.2867
     81  CB       -10.0220    0.9290  -28.1220 C.3    78  ALA78       0.0290
     82  N         -6.8600    5.1920  -26.5290 N.3    80  PHE80      -0.1241
     83  CA        -7.2740    6.0660  -25.4440 C.3    80  PHE80       0.1605
     84  C         -6.4480    7.3430  -25.5120 C.2    80  PHE80       0.2264
     85  O         -5.2340    7.3320  -25.2960 O.2    80  PHE80      -0.2867
     86  CB        -7.1120    5.3700  -24.0870 C.3    80  PHE80       0.0534
     87  CG        -8.2130    4.3770  -23.7720 C.ar   80  PHE80      -0.0203
     88  CD1       -8.2380    3.7160  -22.5410 C.ar   80  PHE80      -0.0042
     89  CD2       -9.2120    4.0930  -24.7050 C.ar   80  PHE80      -0.0042
     90  CE1       -9.2410    2.7830  -22.2420 C.ar   80  PHE80      -0.0003
     91  CE2      -10.2260    3.1560  -24.4150 C.ar   80  PHE80      -0.0003
     92  CZ       -10.2320    2.5030  -23.1790 C.ar   80  PHE80      -0.0000
     93  N        -12.1300    8.1200  -26.2420 N.3    91  LEU91      -0.1245
     94  CA       -11.9190    7.1650  -27.3160 C.3    91  LEU91       0.1561
     95  C        -11.2900    7.7930  -28.5470 C.2    91  LEU91       0.2260
     96  O        -11.5210    8.9670  -28.8480 O.2    91  LEU91      -0.2867
     97  CB       -13.2390    6.4900  -27.6990 C.3    91  LEU91       0.0270
     98  CG       -13.3540    5.0070  -27.3340 C.3    91  LEU91       0.0019
     99  CD1      -14.6160    4.4290  -27.9730 C.3    91  LEU91       0.0001
    100  CD2      -12.1330    4.2470  -27.8200 C.3    91  LEU91       0.0001
    101  N        -17.2420    9.2460  -24.4990 N.3    97  TYR97      -0.1241
    102  CA       -16.6460    8.1880  -23.6920 C.3    97  TYR97       0.1605
    103  C        -15.5900    8.7470  -22.7520 C.2    97  TYR97       0.2264
    104  O        -14.6710    9.4560  -23.1790 O.2    97  TYR97      -0.2867
    105  CB       -16.0230    7.1220  -24.5950 C.3    97  TYR97       0.0534
    106  CG       -15.7980    5.7780  -23.9270 C.ar   97  TYR97      -0.0201
    107  CD1      -14.5220    5.2120  -23.8520 C.ar   97  TYR97      -0.0009
    108  CD2      -16.8680    5.0520  -23.4020 C.ar   97  TYR97      -0.0009
    109  CE1      -14.3200    3.9510  -23.2710 C.ar   97  TYR97       0.0417
    110  CE2      -16.6760    3.7960  -22.8230 C.ar   97  TYR97       0.0417
    111  CZ       -15.4040    3.2540  -22.7620 C.ar   97  TYR97       0.1957
    112  OH       -15.2240    2.0140  -22.1960 O.3    97  TYR97      -0.2866
    113  N        -15.3850    3.6290  -16.3710 N.3   114  PHE114     -0.1241
    114  CA       -15.6760    3.8440  -17.7800 C.3   114  PHE114      0.1605
    115  C        -17.1180    4.3420  -17.8830 C.2   114  PHE114      0.2264
    116  O        -17.9930    3.8680  -17.1540 O.2   114  PHE114     -0.2867
    117  CB       -15.5230    2.5240  -18.5650 C.3   114  PHE114      0.0534
    118  CG       -14.1760    1.8570  -18.4050 C.ar  114  PHE114     -0.0203
    119  CD1      -13.1670    2.0520  -19.3460 C.ar  114  PHE114     -0.0042
    120  CD2      -13.9170    1.0530  -17.3040 C.ar  114  PHE114     -0.0042
    121  CE1      -11.9190    1.4570  -19.1930 C.ar  114  PHE114     -0.0003
    122  CE2      -12.6770    0.4500  -17.1300 C.ar  114  PHE114     -0.0003
    123  CZ       -11.6700    0.6480  -18.0730 C.ar  114  PHE114     -0.0000
    124  N        -19.9920    5.7320  -20.9780 N.3   116  LEU116     -0.1245
    125  CA       -20.3830    6.0640  -22.3380 C.3   116  LEU116      0.1561
    126  C        -21.7400    6.7460  -22.2050 C.2   116  LEU116      0.2260
    127  O        -22.6360    6.2190  -21.5430 O.2   116  LEU116     -0.2867
    128  CB       -20.5060    4.7890  -23.1730 C.3   116  LEU116      0.0270
    129  CG       -20.9600    4.9430  -24.6260 C.3   116  LEU116      0.0019
    130  CD1      -19.8600    5.6090  -25.4400 C.3   116  LEU116      0.0001
    131  CD2      -21.2820    3.5630  -25.2100 C.3   116  LEU116      0.0001
    132  N        -25.5900    8.2430  -25.9840 N.3   119  ASP119     -0.1239
    133  CA       -25.6560    7.1050  -26.8880 C.3   119  ASP119      0.1674
    134  C        -26.7110    6.0840  -26.4450 C.2   119  ASP119      0.2266
    135  O        -26.9740    5.9210  -25.2520 O.2   119  ASP119     -0.2867
    136  CB       -24.2750    6.4510  -26.9590 C.3   119  ASP119      0.1410
    137  CG       -24.2270    5.2810  -27.9180 C.2   119  ASP119      0.3668
    138  OD1      -24.7250    4.1900  -27.5630 O.co2 119  ASP119     -0.2456
    139  OD2      -23.6920    5.4550  -29.0340 O.co2 119  ASP119     -0.2456
    140  N        -26.4820    2.9920  -26.4670 N.3   121  ALA121     -0.1245
    141  CA       -25.8140    1.9040  -25.7620 C.3   121  ALA121      0.1562
    142  C        -25.1180    2.4320  -24.5070 C.2   121  ALA121      0.2260
    143  O        -24.2210    1.7850  -23.9660 O.2   121  ALA121     -0.2867
    144  CB       -24.7920    1.2270  -26.6910 C.3   121  ALA121      0.0290
    145  N        -23.7270    3.4790  -20.9270 N.3   123  PHE123     -0.1241
    146  CA       -23.4350    2.6190  -19.7990 C.3   123  PHE123      0.1605
    147  C        -22.2460    3.1350  -19.0050 C.2   123  PHE123      0.2264
    148  O        -21.4590    3.9550  -19.4960 O.2   123  PHE123     -0.2867
    149  CB       -23.0590    1.2200  -20.2980 C.3   123  PHE123      0.0534
    150  CG       -21.6220    1.1160  -20.7780 C.ar  123  PHE123     -0.0203
    151  CD1      -21.2680    1.4970  -22.0720 C.ar  123  PHE123     -0.0042
    152  CD2      -20.6150    0.6980  -19.9100 C.ar  123  PHE123     -0.0042
    153  CE1      -19.9290    1.4660  -22.4900 C.ar  123  PHE123     -0.0003
    154  CE2      -19.2810    0.6660  -20.3140 C.ar  123  PHE123     -0.0003
    155  CZ       -18.9370    1.0510  -21.6100 C.ar  123  PHE123     -0.0000
    156  N        -19.2010    1.5730  -16.0930 N.3   125  ALA125     -0.1245
    157  CA       -18.7120    0.3650  -15.4610 C.3   125  ALA125      0.1562
    158  C        -17.4030    0.6620  -14.7560 C.2   125  ALA125      0.2260
    159  O        -16.7300    1.6450  -15.0800 O.2   125  ALA125     -0.2867
    160  CB       -18.4990   -0.7190  -16.5090 C.3   125  ALA125      0.0290
    161  N        -13.8540   -1.4580  -13.2840 N.3   127  THR127     -0.1218
    162  CA       -13.1380   -2.7170  -13.2460 C.3   127  THR127      0.1862
    163  C        -12.1110   -2.6090  -12.1440 C.2   127  THR127      0.2287
    164  O        -11.7790   -1.5120  -11.7120 O.2   127  THR127     -0.2866
    165  CB       -12.3370   -2.9720  -14.5410 C.3   127  THR127      0.1770
    166  OG1      -11.3410   -1.9430  -14.6890 O.3   127  THR127     -0.2211
    167  CG2      -13.2540   -2.9750  -15.7630 C.3   127  THR127      0.0375
    168  N         -8.5180   -4.0590  -11.9850 N.3   129  TYR129     -0.1241
    169  CA        -7.5050   -4.8010  -12.7190 C.3   129  TYR129      0.1605
    170  C         -6.4780   -5.3530  -11.7540 C.2   129  TYR129      0.2264
    171  O         -6.2170   -4.7730  -10.7070 O.2   129  TYR129     -0.2867
    172  CB        -6.7600   -3.8930  -13.7020 C.3   129  TYR129      0.0534
    173  CG        -7.5140   -3.4120  -14.9220 C.ar  129  TYR129     -0.0201
    174  CD1       -8.1090   -4.3130  -15.8100 C.ar  129  TYR129     -0.0009
    175  CD2       -7.5040   -2.0640  -15.2690 C.ar  129  TYR129     -0.0009
    176  CE1       -8.6570   -3.8780  -17.0170 C.ar  129  TYR129      0.0417
    177  CE2       -8.0460   -1.6210  -16.4650 C.ar  129  TYR129      0.0417
    178  CZ        -8.6170   -2.5310  -17.3400 C.ar  129  TYR129      0.1957
    179  OH        -9.1050   -2.0870  -18.5530 O.3   129  TYR129     -0.2866
@<TRIPOS>BOND
     1    77    78    1
     2    78    79    1
     3    78    81    1
     4   139   137   ar
     5    96    95    2
     6    79    80    2
     7    95    94    1
     8    99    98    1
     9   137   138   ar
    10   137   136    1
    11   100    98    1
    12    97    98    1
    13    97    94    1
    14    94    93    1
    15    59    58    2
    16    66    65    2
    17   136   133    1
    18   133   134    1
    19   133   132    1
    20    56    57    1
    21   144   141    1
    22    72    71    2
    23    82    83    1
    24   140   141    1
    25   134   135    2
    26    58    57    1
    27    63    64    1
    28    65    64    1
    29    57    60    1
    30   141   142    1
    31    71    70    1
    32    84    83    1
    33    84    85    2
    34    69    70    1
    35    83    86    1
    36   130   129    1
    37    64    67    1
    38    73    70    1
    39    73    75    1
    40    73    74    1
    41   131   129    1
    42    67    68    1
    43    60    62    1
    44    60    61    1
    45    89    91   ar
    46    89    87   ar
    47    76    74    1
    48   129   128    1
    49   105   106    1
    50   105   102    1
    51   142   143    2
    52   101   102    1
    53    91    92   ar
    54    86    87    1
    55   106   107   ar
    56   106   108   ar
    57   107   109   ar
    58    87    88   ar
    59   102   103    1
    60   108   110   ar
    61   109   111   ar
    62    92    90   ar
    63   104   103    2
    64   128   125    1
    65    46    45    1
    66    46    47    2
    67   110   111   ar
    68   111   112    1
    69    88    90   ar
    70   153   151   ar
    71   153   155   ar
    72    45    44    1
    73    45    48    1
    74   125   126    1
    75   125   124    1
    76   126   127    2
    77   151   150   ar
    78    43    41    1
    79   155   154   ar
    80    38    39    1
    81    38    41    1
    82    38    37    1
    83    39    40    2
    84    48    49    1
    85    50    52   ar
    86    50    49   ar
    87    29    30    1
    88    29    26    1
    89    32    34   ar
    90    32    30   ar
    91   145   146    1
    92    41    42    1
    93    52    54   ar
    94    49    51   ar
    95   150   149    1
    96   150   152   ar
    97    34    35   ar
    98    30    31   ar
    99   154   152   ar
   100   149   146    1
   101    54    55    1
   102    54    53   ar
   103    51    53   ar
   104    26    27    1
   105    26    25    1
   106   146   147    1
   107    27    28    2
   108    35    36    1
   109    35    33   ar
   110    31    33   ar
   111   148   147    2
   112   119   121   ar
   113   119   118   ar
   114   121   123   ar
   115   117   118    1
   116   117   114    1
   117   179   178    1
   118   118   120   ar
   119    24    23    1
   120   123   122   ar
   121    22    23    1
   122    22    21    1
   123   115   114    1
   124   115   116    2
   125   114   113    1
   126   178   176   ar
   127   178   177   ar
   128   120   122   ar
   129    18    19    1
   130    18    21    1
   131    18    17    1
   132    19    20    2
   133    16    14    1
   134   176   174   ar
   135     8     6    1
   136   160   157    1
   137   177   175   ar
   138     9    10    1
   139   156   157    1
   140     7     6    1
   141   174   173   ar
   142    14    13    1
   143   167   165    1
   144    10    13    1
   145    10    11    1
   146     6     5    1
   147   157   158    1
   148   175   173   ar
   149   159   158    2
   150    13    15    1
   151   173   172    1
   152    11    12    2
   153   166   165    1
   154     5     2    1
   155   165   162    1
   156   172   169    1
   157   161   162    1
   158   162   163    1
   159     2     3    1
   160     2     1    1
   161   169   168    1
   162   169   170    1
   163     3     4    2
   164   163   164    2
   165   170   171    2
