@<TRIPOS>MOLECULE
tmp/3bx8A00.pdb
 156 147 0 0 0
SMALL
GASTEIGER

@<TRIPOS>ATOM
      1  N         16.7700   20.2340    1.7880 N.3    32  LEU32      -0.1245
      2  CA        16.8850   20.9920    3.0340 C.3    32  LEU32       0.1561
      3  C         15.9610   22.2030    3.0030 C.2    32  LEU32       0.2260
      4  O         15.9860   22.9970    2.0550 O.2    32  LEU32      -0.2867
      5  CB        18.3420   21.4430    3.2570 C.3    32  LEU32       0.0270
      6  CG        18.6570   22.2740    4.5110 C.3    32  LEU32       0.0019
      7  CD1       18.3260   21.4720    5.7660 C.3    32  LEU32       0.0001
      8  CD2       20.1370   22.6730    4.5090 C.3    32  LEU32       0.0001
      9  N         15.6620   29.7970    7.7700 N.3    36  ARG36      -0.1231
     10  CA        16.8700   30.5620    7.5160 C.3    36  ARG36       0.1694
     11  C         17.4150   30.1740    6.1540 C.2    36  ARG36       0.2591
     12  O         18.3490   30.7970    5.6540 O.2    36  ARG36      -0.2718
     13  CB        17.9250   30.2730    8.5800 C.3    36  ARG36       0.0321
     14  CG        17.5060   30.6460    9.9920 C.3    36  ARG36       0.0489
     15  CD        17.5910   32.1410   10.2390 C.3    36  ARG36       0.2205
     16  NE        17.4160   32.4430   11.6580 N.pl3  36  ARG36      -0.0865
     17  CZ        17.6090   33.6400   12.2040 C.cat  36  ARG36       0.5346
     18  NH1       17.9870   34.6670   11.4470 N.pl3  36  ARG36       0.1354
     19  NH2       17.4260   33.8080   13.5090 N.pl3  36  ARG36       0.1354
     20  N         16.8330   29.1370    5.5560 N.am   37  ILE37      -0.1980
     21  CA        17.2900   28.6710    4.2500 C.3    37  ILE37       0.1595
     22  C         16.7090   29.5420    3.1500 C.2    37  ILE37       0.2287
     23  O         15.5010   29.7750    3.0990 O.2    37  ILE37      -0.2864
     24  CB        16.8680   27.2130    3.9790 C.3    37  ILE37       0.0276
     25  CG1       17.4620   26.3030    5.0550 C.3    37  ILE37       0.0022
     26  CG2       17.3260   26.7780    2.5730 C.3    37  ILE37       0.0022
     27  CD1       18.9690   26.4300    5.1860 C.3    37  ILE37       0.0001
     28  N         24.0050   24.9850   -3.0530 N.3    45  MET45      -0.1245
     29  CA        24.6430   24.3900   -1.8840 C.3    45  MET45       0.1570
     30  C         25.1180   22.9940   -2.2460 C.2    45  MET45       0.2261
     31  O         24.3990   22.2400   -2.9050 O.2    45  MET45      -0.2867
     32  CB        23.6480   24.3030   -0.7220 C.3    45  MET45       0.0387
     33  CG        24.2150   23.6750    0.5380 C.3    45  MET45       0.0595
     34  SD        22.9640   23.4710    1.8250 S.3    45  MET45      -0.1393
     35  CE        22.2340   25.0670    1.8080 C.3    45  MET45       0.0692
     36  N         26.0170   17.3600    1.4610 N.3    48  TYR48      -0.1241
     37  CA        26.8980   16.9130    2.5310 C.3    48  TYR48       0.1605
     38  C         26.2650   15.6750    3.1550 C.2    48  TYR48       0.2264
     39  O         25.1470   15.3100    2.8170 O.2    48  TYR48      -0.2867
     40  CB        27.1560   17.9990    3.5930 C.3    48  TYR48       0.0534
     41  CG        25.9400   18.5540    4.2890 C.ar   48  TYR48      -0.0201
     42  CD1       25.0530   19.3930    3.6240 C.ar   48  TYR48      -0.0009
     43  CD2       25.6960   18.2640    5.6300 C.ar   48  TYR48      -0.0009
     44  CE1       23.9590   19.9320    4.2700 C.ar   48  TYR48       0.0417
     45  CE2       24.6000   18.8040    6.2910 C.ar   48  TYR48       0.0417
     46  CZ        23.7390   19.6350    5.6050 C.ar   48  TYR48       0.1957
     47  OH        22.6550   20.1790    6.2610 O.3    48  TYR48      -0.2866
     48  N         25.6090   13.0610    6.7860 N.3    50  THR50      -0.1218
     49  CA        25.4980   12.9750    8.2310 C.3    50  THR50       0.1862
     50  C         25.4680   11.5000    8.5790 C.2    50  THR50       0.2287
     51  O         24.7330   10.7260    7.9720 O.2    50  THR50      -0.2866
     52  CB        24.2200   13.6380    8.7430 C.3    50  THR50       0.1770
     53  OG1       24.2070   15.0040    8.3250 O.3    50  THR50      -0.2211
     54  CG2       24.1670   13.5800   10.2730 C.3    50  THR50       0.0375
     55  N         26.6580   11.8610   16.1500 N.3    62  VAL62      -0.1245
     56  CA        26.2610   12.3610   14.8420 C.3    62  VAL62       0.1561
     57  C         27.3780   13.1520   14.1740 C.2    62  VAL62       0.2260
     58  O         27.7480   14.2390   14.6180 O.2    62  VAL62      -0.2867
     59  CB        24.9900   13.2370   14.9630 C.3    62  VAL62       0.0252
     60  CG1       24.4710   13.6380   13.5730 C.3    62  VAL62       0.0019
     61  CG2       23.9150   12.4600   15.7250 C.3    62  VAL62       0.0019
     62  N         28.9060   15.0730   10.8360 N.3    64  SER64      -0.1217
     63  CA        28.5860   15.7320    9.5790 C.3    64  SER64       0.1889
     64  C         29.8700   15.8640    8.7700 C.2    64  SER64       0.2288
     65  O         30.9010   16.2820    9.3020 O.2    64  SER64      -0.2866
     66  CB        27.9970   17.1220    9.8270 C.3    64  SER64       0.2089
     67  OG        26.5980   17.0530   10.0290 O.3    64  SER64      -0.2183
     68  N         32.5640   17.3240   11.7210 N.3    75  THR75      -0.1203
     69  CA        32.1040   17.9030   12.9760 C.3    75  THR75       0.1994
     70  C         31.2200   16.8640   13.6540 C.2    75  THR75       0.2618
     71  O         30.5850   16.0480   12.9800 O.2    75  THR75      -0.2717
     72  CB        31.3090   19.2000   12.7480 C.3    75  THR75       0.1784
     73  OG1       30.3550   19.0000   11.6990 O.3    75  THR75      -0.2211
     74  CG2       32.2390   20.3240   12.3620 C.3    75  THR75       0.0376
     75  N         31.1880   16.8760   14.9820 N.am   76  ILE76      -0.1965
     76  CA        30.3810   15.9040   15.7100 C.3    76  ILE76       0.1727
     77  C         29.4640   16.5310   16.7480 C.2    76  ILE76       0.2616
     78  O         29.7840   17.5470   17.3560 O.2    76  ILE76      -0.2715
     79  CB        31.2390   14.8700   16.4750 C.3    76  ILE76       0.0290
     80  CG1       32.3850   14.3540   15.6100 C.3    76  ILE76       0.0022
     81  CG2       30.3760   13.6740   16.8630 C.3    76  ILE76       0.0023
     82  CD1       33.3130   13.4080   16.3720 C.3    76  ILE76       0.0001
     83  N         28.3190   15.8920   16.9420 N.am   77  ALA77      -0.1977
     84  CA        27.3340   16.3180   17.9230 C.3    77  ALA77       0.1597
     85  C         26.7510   15.0440   18.5210 C.2    77  ALA77       0.2287
     86  O         26.7920   13.9860   17.8930 O.2    77  ALA77      -0.2864
     87  CB        26.2410   17.1330   17.2560 C.3    77  ALA77       0.0319
     88  N         23.3560   13.2480   19.9150 N.3    79  PHE79      -0.1241
     89  CA        21.9010   13.3300   19.9830 C.3    79  PHE79       0.1605
     90  C         21.4310   12.3880   21.0910 C.2    79  PHE79       0.2264
     91  O         21.5490   11.1640   20.9820 O.2    79  PHE79      -0.2867
     92  CB        21.2510   12.9360   18.6460 C.3    79  PHE79       0.0534
     93  CG        21.3140   14.0080   17.5780 C.ar   79  PHE79      -0.0203
     94  CD1       20.6370   13.8390   16.3710 C.ar   79  PHE79      -0.0042
     95  CD2       22.0520   15.1670   17.7630 C.ar   79  PHE79      -0.0042
     96  CE1       20.6990   14.8080   15.3650 C.ar   79  PHE79      -0.0003
     97  CE2       22.1210   16.1420   16.7660 C.ar   79  PHE79      -0.0003
     98  CZ        21.4450   15.9620   15.5660 C.ar   79  PHE79      -0.0000
     99  N         17.6120   22.7520   21.6540 N.3    97  TYR97      -0.1241
    100  CA        17.7790   22.2700   20.2870 C.3    97  TYR97       0.1605
    101  C         17.0750   20.9220   20.2120 C.2    97  TYR97       0.2264
    102  O         17.5200   19.9600   20.8310 O.2    97  TYR97      -0.2867
    103  CB        19.2640   22.1150   19.9590 C.3    97  TYR97       0.0534
    104  CG        19.5550   21.8600   18.4940 C.ar   97  TYR97      -0.0201
    105  CD1       19.2180   20.6460   17.8930 C.ar   97  TYR97      -0.0009
    106  CD2       20.1470   22.8430   17.7000 C.ar   97  TYR97      -0.0009
    107  CE1       19.4600   20.4190   16.5370 C.ar   97  TYR97       0.0417
    108  CE2       20.3930   22.6260   16.3440 C.ar   97  TYR97       0.0417
    109  CZ        20.0440   21.4120   15.7710 C.ar   97  TYR97       0.1957
    110  OH        20.2620   21.1970   14.4300 O.3    97  TYR97      -0.2866
    111  N         14.2440   19.8180   12.7250 N.3   114  PHE114     -0.1241
    112  CA        15.1990   20.3840   13.6770 C.3   114  PHE114      0.1605
    113  C         14.6840   21.7390   14.1750 C.2   114  PHE114      0.2264
    114  O         14.2080   22.5590   13.3850 O.2   114  PHE114     -0.2867
    115  CB        16.5640   20.5850   13.0070 C.3   114  PHE114      0.0534
    116  CG        17.1890   19.3140   12.4660 C.ar  114  PHE114     -0.0203
    117  CD1       18.0020   18.5240   13.2670 C.ar  114  PHE114     -0.0042
    118  CD2       16.9780   18.9250   11.1400 C.ar  114  PHE114     -0.0042
    119  CE1       18.6030   17.3690   12.7660 C.ar  114  PHE114     -0.0003
    120  CE2       17.5740   17.7700   10.6250 C.ar  114  PHE114     -0.0003
    121  CZ        18.3910   16.9900   11.4380 C.ar  114  PHE114     -0.0000
    122  N         15.9450   28.9950   14.9270 N.3   121  PHE121     -0.1241
    123  CA        15.5440   28.5580   13.5990 C.3   121  PHE121      0.1605
    124  C         14.9720   27.1580   13.6530 C.2   121  PHE121      0.2264
    125  O         15.0840   26.4620   14.6600 O.2   121  PHE121     -0.2867
    126  CB        16.7500   28.5140   12.6560 C.3   121  PHE121      0.0534
    127  CG        17.6560   27.3280   12.8920 C.ar  121  PHE121     -0.0203
    128  CD1       18.6450   27.3680   13.8740 C.ar  121  PHE121     -0.0042
    129  CD2       17.4880   26.1500   12.1650 C.ar  121  PHE121     -0.0042
    130  CE1       19.4500   26.2470   14.1280 C.ar  121  PHE121     -0.0003
    131  CE2       18.2850   25.0310   12.4140 C.ar  121  PHE121     -0.0003
    132  CZ        19.2660   25.0800   13.3960 C.ar  121  PHE121     -0.0000
    133  N         14.4380   23.7390   10.7980 N.3   123  ALA123     -0.1245
    134  CA        14.7760   23.2620    9.4730 C.3   123  ALA123      0.1562
    135  C         14.2540   21.8540    9.3210 C.2   123  ALA123      0.2260
    136  O         13.9240   21.1850   10.3070 O.2   123  ALA123     -0.2867
    137  CB        16.2810   23.2830    9.2820 C.3   123  ALA123      0.0290
    138  N         15.0700   18.3070    6.8460 N.3   125  THR125     -0.1218
    139  CA        15.8840   17.7390    5.8020 C.3   125  THR125      0.1862
    140  C         15.2210   16.4750    5.3040 C.2   125  THR125      0.2287
    141  O         14.4180   15.8590    6.0070 O.2   125  THR125     -0.2866
    142  CB        17.2660   17.3050    6.2990 C.3   125  THR125      0.1770
    143  OG1       17.1050   16.2350    7.2380 O.3   125  THR125     -0.2211
    144  CG2       17.9940   18.4500    6.9540 C.3   125  THR125      0.0375
    145  N         16.7180   13.1440    3.9510 N.3   127  TYR127     -0.1241
    146  CA        17.9360   12.3720    3.7400 C.3   127  TYR127      0.1605
    147  C         17.6670   11.2290    2.7760 C.2   127  TYR127      0.2264
    148  O         16.5280   10.7650    2.6420 O.2   127  TYR127     -0.2867
    149  CB        18.3960   11.7390    5.0440 C.3   127  TYR127      0.0534
    150  CG        18.8310   12.6810    6.1480 C.ar  127  TYR127     -0.0201
    151  CD1       19.8120   13.6500    5.9220 C.ar  127  TYR127     -0.0009
    152  CD2       18.4030   12.4750    7.4620 C.ar  127  TYR127     -0.0009
    153  CE1       20.3700   14.3670    6.9790 C.ar  127  TYR127      0.0417
    154  CE2       18.9470   13.1890    8.5210 C.ar  127  TYR127      0.0417
    155  CZ        19.9340   14.1270    8.2740 C.ar  127  TYR127      0.1957
    156  OH        20.5130   14.7860    9.3340 O.3   127  TYR127     -0.2866
@<TRIPOS>BOND
     1    28    29    1
     2    31    30    2
     3    30    29    1
     4    29    32    1
     5    32    33    1
     6    33    34    1
     7    36    37    1
     8     1     2    1
     9    35    34    1
    10     4     3    2
    11    37    38    1
    12    37    40    1
    13    26    24    1
    14   148   147    2
    15   147   146    1
    16    39    38    2
    17     3     2    1
    18     2     5    1
    19    23    22    2
    20    22    21    1
    21     5     6    1
    22    40    41    1
    23    42    44   ar
    24    42    41   ar
    25   146   145    1
    26   146   149    1
    27    24    21    1
    28    24    25    1
    29    21    20    1
    30    44    46   ar
    31    41    43   ar
    32     8     6    1
    33     6     7    1
    34   149   150    1
    35    25    27    1
    36   140   139    1
    37   140   141    2
    38    20    11   am
    39    46    47    1
    40    46    45   ar
    41    43    45   ar
    42    12    11    2
    43   139   142    1
    44   139   138    1
    45   151   150   ar
    46   151   153   ar
    47   150   152   ar
    48    11    10    1
    49   142   144    1
    50   142   143    1
    51    48    49    1
    52   153   155   ar
    53   152   154   ar
    54    10     9    1
    55    10    13    1
    56    51    50    2
    57    49    50    1
    58    49    52    1
    59   155   154   ar
    60   155   156    1
    61    53    52    1
    62    13    14    1
    63    52    54    1
    64    64    65    2
    65    64    63    1
    66   137   134    1
    67   135   134    1
    68   135   136    2
    69   134   133    1
    70    63    66    1
    71    63    62    1
    72    66    67    1
    73    14    15    1
    74    15    16    1
    75   120   118   ar
    76   120   121   ar
    77   118   116   ar
    78   121   119   ar
    79    18    17    1
    80    16    17    2
    81    73    72    1
    82    68    69    1
    83   129   131   ar
    84   129   127   ar
    85    17    19    1
    86    74    72    1
    87   131   132   ar
    88   116   115    1
    89   116   117   ar
    90   126   127    1
    91   126   123    1
    92   111   112    1
    93    72    69    1
    94   119   117   ar
    95   127   128   ar
    96    69    70    1
    97    71    70    2
    98   115   112    1
    99   114   113    2
   100   132   130   ar
   101    60    59    1
   102   123   124    1
   103   123   122    1
   104   124   125    2
   105    70    75   am
   106   112   113    1
   107   128   130   ar
   108    57    58    2
   109    57    56    1
   110   110   109    1
   111    56    59    1
   112    56    55    1
   113    59    61    1
   114    75    76    1
   115    96    98   ar
   116    96    94   ar
   117    98    97   ar
   118    80    82    1
   119    80    79    1
   120    76    79    1
   121    76    77    1
   122   109   108   ar
   123   109   107   ar
   124   108   106   ar
   125    94    93   ar
   126    79    81    1
   127   107   105   ar
   128    77    83   am
   129    77    78    2
   130    97    95   ar
   131    83    84    1
   132    87    84    1
   133    93    95   ar
   134    93    92    1
   135   106   104   ar
   136    86    85    2
   137   105   104   ar
   138    84    85    1
   139   104   103    1
   140    92    89    1
   141    88    89    1
   142   103   100    1
   143    89    90    1
   144   101   100    1
   145   101   102    2
   146   100    99    1
   147    91    90    2
