@<TRIPOS>MOLECULE
tmp/3bxeA00.pdb
 130 122 0 0 0
SMALL
GASTEIGER

@<TRIPOS>ATOM
      1  N        -41.1880   14.2320    8.9930 N.3    32  LYS32      -0.1245
      2  CA       -40.4800   13.0020    8.6400 C.3    32  LYS32       0.1561
      3  C        -38.9480   13.1970    8.7450 C.2    32  LYS32       0.2260
      4  O        -38.2370   12.2990    9.2000 O.2    32  LYS32      -0.2867
      5  CB       -40.9110   12.5250    7.2460 C.3    32  LYS32       0.0271
      6  CG       -40.4540   11.1150    6.8730 C.3    32  LYS32       0.0035
      7  CD       -41.0880   10.6380    5.5700 C.3    32  LYS32       0.0206
      8  CE       -42.4770   10.0180    5.7850 C.3    32  LYS32       0.1093
      9  NZ       -43.1410    9.7450    4.4660 N.3    32  LYS32      -0.1314
     10  N        -34.4440   -1.4090    6.4430 N.3    56  THR56      -0.1203
     11  CA       -35.5110   -1.6250    5.4700 C.3    56  THR56       0.1994
     12  C        -35.6210   -0.4290    4.5400 C.2    56  THR56       0.2618
     13  O        -34.8920    0.5630    4.6910 O.2    56  THR56      -0.2717
     14  CB       -36.8840   -1.8830    6.1350 C.3    56  THR56       0.1784
     15  OG1      -37.3490   -0.6680    6.7430 O.3    56  THR56      -0.2211
     16  CG2      -36.7930   -2.9990    7.1650 C.3    56  THR56       0.0376
     17  N        -36.5120   -0.5310    3.5540 N.am   57  GLY57      -0.1942
     18  CA       -36.7790    0.5830    2.6660 C.3    57  GLY57       0.2014
     19  C        -37.9310    1.4270    3.1760 C.2    57  GLY57       0.2639
     20  O        -38.2100    1.4620    4.3790 O.2    57  GLY57      -0.2714
     21  N        -38.6090    2.1030    2.2580 N.am   58  GLY58      -0.1939
     22  CA       -39.6980    2.9870    2.6320 C.3    58  GLY58       0.2014
     23  C        -39.2090    4.4150    2.8140 C.2    58  GLY58       0.2640
     24  O        -38.0170    4.6570    3.0100 O.2    58  GLY58      -0.2714
     25  N        -40.1370    5.3650    2.7510 N.am   59  THR59      -0.1936
     26  CA       -39.7910    6.7940    2.7530 C.3    59  THR59       0.2028
     27  C        -39.2970    7.2830    4.1170 C.2    59  THR59       0.2643
     28  O        -38.5220    8.2420    4.2000 O.2    59  THR59      -0.2714
     29  CB       -40.9900    7.6560    2.3200 C.3    59  THR59       0.1808
     30  OG1      -42.0140    7.5610    3.3160 O.3    59  THR59      -0.2208
     31  CG2      -41.5350    7.1800    0.9760 C.3    59  THR59       0.0379
     32  N        -39.7270    6.6260    5.1910 N.am   60  THR60      -0.1936
     33  CA       -39.2900    7.0630    6.5150 C.3    60  THR60       0.2028
     34  C        -37.8370    6.6850    6.7450 C.2    60  THR60       0.2642
     35  O        -37.0640    7.4890    7.2630 O.2    60  THR60      -0.2714
     36  CB       -40.1920    6.5350    7.6580 C.3    60  THR60       0.1808
     37  OG1      -41.5600    6.8190    7.3410 O.3    60  THR60      -0.2208
     38  CG2      -39.8230    7.2260    8.9670 C.3    60  THR60       0.0379
     39  N        -37.4550    5.4750    6.3400 N.am   61  ILE61      -0.1977
     40  CA       -36.0530    5.0920    6.4780 C.3    61  ILE61       0.1596
     41  C        -35.1950    5.8520    5.4620 C.2    61  ILE61       0.2287
     42  O        -34.0400    6.1530    5.7570 O.2    61  ILE61      -0.2864
     43  CB       -35.8210    3.5540    6.5060 C.3    61  ILE61       0.0276
     44  CG1      -36.7650    2.8650    7.5180 C.3    61  ILE61       0.0022
     45  CG2      -34.3670    3.2450    6.8860 C.3    61  ILE61       0.0022
     46  CD1      -36.7870    3.4880    8.9630 C.3    61  ILE61       0.0001
     47  N        -41.2150   -3.3160   -3.8150 N.3    88  GLU88      -0.1245
     48  CA       -41.1510   -1.8510   -3.8230 C.3    88  GLU88       0.1567
     49  C        -40.5320   -1.3070   -5.1150 C.2    88  GLU88       0.2260
     50  O        -39.7120   -1.9820   -5.7640 O.2    88  GLU88      -0.2867
     51  CB       -40.3230   -1.3510   -2.6280 C.3    88  GLU88       0.0388
     52  CG       -40.8640   -1.7500   -1.2440 C.3    88  GLU88       0.1160
     53  CD       -42.0590   -0.9070   -0.7960 C.2    88  GLU88       0.3649
     54  OE1      -42.6170   -0.1450   -1.6140 O.co2  88  GLU88      -0.2457
     55  OE2      -42.4350   -1.0050    0.3950 O.co2  88  GLU88      -0.2457
     56  N        -39.0640    0.5300    9.1750 N.3   148  GLY148     -0.1210
     57  CA       -40.3230    1.2560    9.1960 C.3   148  GLY148      0.1956
     58  C        -41.4890    0.4000    9.6820 C.2   148  GLY148      0.2612
     59  O        -41.3620   -0.8180    9.8760 O.2   148  GLY148     -0.2717
     60  N        -42.6280    1.0460    9.8980 N.am  149  ILE149     -0.1965
     61  CA       -43.8890    0.3430   10.1220 C.3   149  ILE149      0.1727
     62  C        -44.9120    1.0240    9.2270 C.2   149  ILE149      0.2616
     63  O        -44.9530    2.2540    9.1680 O.2   149  ILE149     -0.2715
     64  CB       -44.3600    0.4240   11.5940 C.3   149  ILE149      0.0290
     65  CG1      -43.2990   -0.1930   12.5250 C.3   149  ILE149      0.0022
     66  CG2      -45.7650   -0.2610   11.7510 C.3   149  ILE149      0.0023
     67  CD1      -43.4800    0.1410   14.0200 C.3   149  ILE149      0.0001
     68  N        -45.7260    0.2380    8.5340 N.am  150  GLY150     -0.1955
     69  CA       -46.7500    0.8010    7.6530 C.3   150  GLY150      0.1869
     70  C        -48.1320    0.2360    7.9020 C.2   150  GLY150      0.2309
     71  O        -48.2870   -0.7880    8.5630 O.2   150  GLY150     -0.2863
     72  N        -49.2350   -0.4740    2.3850 N.3   155  MET155     -0.1245
     73  CA       -47.9980   -1.1120    1.9720 C.3   155  MET155      0.1570
     74  C        -48.2770   -2.1170    0.8520 C.2   155  MET155      0.2261
     75  O        -47.5460   -2.1720   -0.1270 O.2   155  MET155     -0.2867
     76  CB       -47.3470   -1.8400    3.1490 C.3   155  MET155      0.0387
     77  CG       -46.8280   -0.9290    4.2730 C.3   155  MET155      0.0595
     78  SD       -45.6490    0.3280    3.6880 S.3   155  MET155     -0.1393
     79  CE       -44.4110   -0.7090    2.9600 C.3   155  MET155      0.0692
     80  N        -48.9960   -0.2530   -2.4750 N.3   158  ARG158     -0.1231
     81  CA       -47.7780    0.3990   -2.9890 C.3   158  ARG158      0.1694
     82  C        -46.8160   -0.5960   -3.6430 C.2   158  ARG158      0.2591
     83  O        -46.1700   -0.2850   -4.6460 O.2   158  ARG158     -0.2718
     84  CB       -47.0540    1.1730   -1.8780 C.3   158  ARG158      0.0321
     85  CG       -45.8060    1.9510   -2.3480 C.3   158  ARG158      0.0489
     86  CD       -45.1720    2.7800   -1.2040 C.3   158  ARG158      0.2205
     87  NE       -44.2980    1.9890   -0.3270 N.pl3 158  ARG158     -0.0865
     88  CZ       -43.7600    2.4420    0.8150 C.cat 158  ARG158      0.5346
     89  NH1      -42.9500    1.6620    1.5230 N.pl3 158  ARG158      0.1354
     90  NH2      -44.0320    3.6780    1.2500 N.pl3 158  ARG158      0.1354
     91  N        -46.7090   -1.7830   -3.0590 N.am  159  ARG159     -0.1980
     92  CA       -45.8930   -2.8450   -3.6100 C.3   159  ARG159      0.1597
     93  C        -46.7480   -3.4520   -4.6960 C.2   159  ARG159      0.2287
     94  O        -47.9160   -3.0690   -4.8520 O.2   159  ARG159     -0.2864
     95  CB       -45.5470   -3.8540   -2.5240 C.3   159  ARG159      0.0334
     96  CG       -44.6870   -3.2270   -1.4190 C.3   159  ARG159      0.0492
     97  CD       -44.7850   -4.0000   -0.1140 C.3   159  ARG159      0.2205
     98  NE       -43.7930   -3.5240    0.8530 N.pl3 159  ARG159     -0.0865
     99  CZ       -43.6370   -4.0520    2.0670 C.cat 159  ARG159      0.5346
    100  NH1      -44.4200   -5.0500    2.4600 N.pl3 159  ARG159      0.1354
    101  NH2      -42.7170   -3.5720    2.8980 N.pl3 159  ARG159      0.1354
    102  N        -47.7740   -3.5580    9.0030 N.3   177  GLU177     -0.1245
    103  CA       -46.7380   -4.2090    8.2240 C.3   177  GLU177      0.1567
    104  C        -45.3710   -3.7380    8.7120 C.2   177  GLU177      0.2260
    105  O        -45.2130   -2.5730    9.0810 O.2   177  GLU177     -0.2867
    106  CB       -46.9320   -3.8670    6.7480 C.3   177  GLU177      0.0388
    107  CG       -46.0170   -4.6210    5.7580 C.3   177  GLU177      0.1160
    108  CD       -44.6150   -4.0470    5.6700 C.2   177  GLU177      0.3649
    109  OE1      -44.4130   -2.8790    6.0720 O.co2 177  GLU177     -0.2457
    110  OE2      -43.6970   -4.7670    5.2040 O.co2 177  GLU177     -0.2457
    111  N        -41.0490   -4.9360    7.6730 N.3   179  PHE179     -0.1241
    112  CA       -40.0450   -5.7610    7.0100 C.3   179  PHE179      0.1605
    113  C        -40.6340   -6.9670    6.2740 C.2   179  PHE179      0.2264
    114  O        -40.0950   -8.0630    6.3330 O.2   179  PHE179     -0.2867
    115  CB       -38.8680   -6.1380    7.9480 C.3   179  PHE179      0.0534
    116  CG       -39.2800   -6.5560    9.3360 C.ar  179  PHE179     -0.0203
    117  CD1      -39.2860   -5.6310   10.3750 C.ar  179  PHE179     -0.0042
    118  CD2      -39.6290   -7.8840    9.6130 C.ar  179  PHE179     -0.0042
    119  CE1      -39.6580   -6.0010   11.6730 C.ar  179  PHE179     -0.0003
    120  CE2      -40.0160   -8.2730   10.9130 C.ar  179  PHE179     -0.0003
    121  CZ       -40.0260   -7.3180   11.9430 C.ar  179  PHE179     -0.0000
    122  N        -50.8530    6.3560   11.0240 N.3   218  LYS218     -0.1245
    123  CA       -50.2040    5.0970   11.4160 C.3   218  LYS218      0.1561
    124  C        -50.4480    4.6970   12.8610 C.2   218  LYS218      0.2260
    125  O        -49.8390    3.7330   13.3390 O.2   218  LYS218     -0.2867
    126  CB       -48.6910    5.1580   11.1680 C.3   218  LYS218      0.0271
    127  CG       -48.2990    5.3260    9.6950 C.3   218  LYS218      0.0035
    128  CD       -46.8030    5.1170    9.5080 C.3   218  LYS218      0.0206
    129  CE       -46.3900    5.0030    8.0520 C.3   218  LYS218      0.1093
    130  NZ       -44.8910    4.7470    7.9840 N.3   218  LYS218     -0.1314
@<TRIPOS>BOND
     1    50    49    2
     2    49    48    1
     3    94    93    2
     4    93    92    1
     5    83    82    2
     6    48    47    1
     7    48    51    1
     8    82    91   am
     9    82    81    1
    10    92    91    1
    11    92    95    1
    12    81    80    1
    13    81    84    1
    14    51    52    1
    15    95    96    1
    16    85    84    1
    17    85    86    1
    18    54    53   ar
    19    96    97    1
    20    52    53    1
    21    86    87    1
    22    53    55   ar
    23    87    88    2
    24    75    74    2
    25    97    98    1
    26    88    90    1
    27    88    89    1
    28    74    73    1
    29    98    99    2
    30    31    29    1
    31    73    72    1
    32    73    76    1
    33    99   100    1
    34    99   101    1
    35    21    22    1
    36    21    19   am
    37    29    26    1
    38    29    30    1
    39    22    23    1
    40    18    19    1
    41    18    17    1
    42    25    26    1
    43    25    23   am
    44    26    27    1
    45    23    24    2
    46    79    78    1
    47    76    77    1
    48    19    20    2
    49    17    12   am
    50    78    77    1
    51    27    28    2
    52    27    32   am
    53     9     8    1
    54    12    13    2
    55    12    11    1
    56    32    33    1
    57   110   108   ar
    58    41    42    2
    59    41    40    1
    60    11    14    1
    61    11    10    1
    62     7     8    1
    63     7     6    1
    64   108   107    1
    65   108   109   ar
    66   107   106    1
    67    14    15    1
    68    14    16    1
    69   113   114    2
    70   113   112    1
    71    39    40    1
    72    39    34   am
    73    40    43    1
    74    43    45    1
    75    43    44    1
    76    33    34    1
    77    33    36    1
    78    34    35    2
    79   106   103    1
    80     6     5    1
    81   112   111    1
    82   112   115    1
    83     5     2    1
    84    37    36    1
    85    44    46    1
    86    69    70    1
    87    69    68    1
    88    36    38    1
    89    70    71    2
    90   115   116    1
    91   130   129    1
    92   129   128    1
    93   103   104    1
    94   103   102    1
    95    68    62   am
    96     2     3    1
    97     2     1    1
    98   104   105    2
    99     3     4    2
   100    63    62    2
   101    56    57    1
   102    57    58    1
   103    62    61    1
   104   116   118   ar
   105   116   117   ar
   106   128   127    1
   107   118   120   ar
   108    58    59    2
   109    58    60   am
   110   127   126    1
   111    60    61    1
   112    61    64    1
   113   117   119   ar
   114   120   121   ar
   115   122   123    1
   116   126   123    1
   117   123   124    1
   118    64    66    1
   119    64    65    1
   120   119   121   ar
   121    65    67    1
   122   124   125    2
