@<TRIPOS>MOLECULE
tmp/3bxfA00.pdb
 138 129 0 0 0
SMALL
GASTEIGER

@<TRIPOS>ATOM
      1  N         12.9880  -15.5920    9.5230 N.3    39  LYS39      -0.1245
      2  CA        12.2070  -14.3990    9.1310 C.3    39  LYS39       0.1561
      3  C         10.7090  -14.6570    9.2570 C.2    39  LYS39       0.2260
      4  O          9.9480  -13.7860    9.6910 O.2    39  LYS39      -0.2867
      5  CB        12.5560  -13.9810    7.7130 C.3    39  LYS39       0.0271
      6  CG        11.8620  -12.6800    7.2560 C.3    39  LYS39       0.0035
      7  CD        12.4680  -12.0780    5.9870 C.3    39  LYS39       0.0206
      8  CE        13.7720  -11.3640    6.3300 C.3    39  LYS39       0.1093
      9  NZ        14.5450  -10.8820    5.1560 N.3    39  LYS39      -0.1314
     10  N          5.3980   -0.3400    6.7100 N.3    63  THR63      -0.1203
     11  CA         6.4910   -0.1060    5.7620 C.3    63  THR63       0.1994
     12  C          6.5990   -1.3020    4.8310 C.2    63  THR63       0.2618
     13  O          5.9560   -2.3330    5.0490 O.2    63  THR63      -0.2717
     14  CB         7.8580    0.0720    6.4590 C.3    63  THR63       0.1784
     15  OG1        8.2310   -1.1470    7.1130 O.3    63  THR63      -0.2211
     16  CG2        7.8030    1.1970    7.4690 C.3    63  THR63       0.0376
     17  N          7.4230   -1.1560    3.8000 N.am   64  GLY64      -0.1942
     18  CA         7.7390   -2.2670    2.9130 C.3    64  GLY64       0.2014
     19  C          8.9630   -3.0400    3.3880 C.2    64  GLY64       0.2639
     20  O          9.3780   -2.9340    4.5550 O.2    64  GLY64      -0.2714
     21  N          9.5620   -3.7800    2.4530 N.am   65  GLY65      -0.1939
     22  CA        10.7180   -4.6330    2.7200 C.3    65  GLY65       0.2014
     23  C         10.3270   -6.0620    3.0690 C.2    65  GLY65       0.2640
     24  O          9.2000   -6.3170    3.4840 O.2    65  GLY65      -0.2714
     25  N         11.2760   -6.9930    2.9080 N.am   66  THR66      -0.1936
     26  CA        11.0010   -8.4300    3.0900 C.3    66  THR66       0.2028
     27  C         10.5170   -8.8350    4.4850 C.2    66  THR66       0.2642
     28  O          9.8050   -9.8390    4.6310 O.2    66  THR66      -0.2714
     29  CB        12.2360   -9.2840    2.7670 C.3    66  THR66       0.1808
     30  OG1       13.2780   -8.9880    3.7110 O.3    66  THR66      -0.2208
     31  CG2       12.7010   -9.0330    1.3490 C.3    66  THR66       0.0379
     32  N         10.9300   -8.0980    5.5150 N.am   67  THR67      -0.1950
     33  CA        10.5990   -8.4970    6.8970 C.3    67  THR67       0.1897
     34  C          9.1190   -8.2090    7.1690 C.2    67  THR67       0.2313
     35  O          8.3860   -9.0880    7.6830 O.2    67  THR67      -0.2863
     36  CB        11.5480   -7.8550    7.9330 C.3    67  THR67       0.1794
     37  OG1       12.9090   -8.0900    7.5320 O.3    67  THR67      -0.2208
     38  CG2       11.3200   -8.5000    9.3140 C.3    67  THR67       0.0378
     39  N          4.5750    5.6130    4.3680 N.3    90  ARG90      -0.1245
     40  CA         5.0800    6.6580    3.4790 C.3    90  ARG90       0.1563
     41  C          4.8880    6.2990    1.9980 C.2    90  ARG90       0.2260
     42  O          4.5760    5.1540    1.6410 O.2    90  ARG90      -0.2867
     43  CB         6.5640    6.9400    3.7840 C.3    90  ARG90       0.0307
     44  CG         7.5300    5.8070    3.3180 C.3    90  ARG90       0.0489
     45  CD         9.0170    6.2270    3.3490 C.3    90  ARG90       0.2205
     46  NE         9.8470    5.3640    2.4950 N.pl3  90  ARG90      -0.0865
     47  CZ        10.2290    5.6910    1.2710 C.cat  90  ARG90       0.5346
     48  NH1        9.8900    6.8790    0.7730 N.pl3  90  ARG90       0.1354
     49  NH2       10.9700    4.8550    0.5360 N.pl3  90  ARG90       0.1354
     50  N          6.5790    0.0160   -2.5900 N.3   100  GLN100     -0.1231
     51  CA         6.4620   -1.3180   -1.9800 C.3   100  GLN100      0.1698
     52  C          5.7050   -1.4170   -0.6250 C.2   100  GLN100      0.2592
     53  O          5.1000   -2.4430   -0.3640 O.2   100  GLN100     -0.2718
     54  CB         7.7820   -2.1300   -2.0100 C.3   100  GLN100      0.0381
     55  CG         8.6160   -2.2970   -0.7600 C.3   100  GLN100      0.0905
     56  CD         9.8650   -3.1090   -1.0450 C.2   100  GLN100      0.2608
     57  OE1        9.7850   -4.2520   -1.5290 O.2   100  GLN100     -0.2717
     58  NE2       11.0360   -2.5280   -0.7600 N.am  100  GLN100     -0.0878
     59  N          5.6540   -0.3430    0.1740 N.am  101  ALA101     -0.1980
     60  CA         4.7350   -0.3550    1.3340 C.3   101  ALA101      0.1597
     61  C          3.2820   -0.5750    0.9040 C.2   101  ALA101      0.2287
     62  O          2.5190   -1.2640    1.5750 O.2   101  ALA101     -0.2864
     63  CB         4.8780    0.9250    2.1720 C.3   101  ALA101      0.0319
     64  N         10.1850   -1.9000    9.3070 N.3   155  GLY155     -0.1210
     65  CA        11.4680   -2.5950    9.2510 C.3   155  GLY155      0.1956
     66  C         12.6010   -1.6790    9.6990 C.2   155  GLY155      0.2612
     67  O         12.3940   -0.4970   10.0180 O.2   155  GLY155     -0.2717
     68  N         13.8110   -2.2330    9.7400 N.am  156  ILE156     -0.1965
     69  CA        15.0220   -1.4480    9.9620 C.3   156  ILE156      0.1727
     70  C         16.0720   -2.0570    9.0600 C.2   156  ILE156      0.2616
     71  O         16.1960   -3.3010    8.9830 O.2   156  ILE156     -0.2715
     72  CB        15.5080   -1.5370   11.4350 C.3   156  ILE156      0.0290
     73  CG1       14.4460   -1.0490   12.4300 C.3   156  ILE156      0.0022
     74  CG2       16.8510   -0.8330   11.6490 C.3   156  ILE156      0.0023
     75  CD1       14.9260   -1.1890   13.8560 C.3   156  ILE156      0.0001
     76  N         16.8240   -1.1980    8.3870 N.am  157  GLY157     -0.1955
     77  CA        17.8670   -1.6510    7.4700 C.3   157  GLY157      0.1869
     78  C         19.2060   -1.0200    7.7440 C.2   157  GLY157      0.2309
     79  O         19.3070   -0.0050    8.4380 O.2   157  GLY157     -0.2863
     80  N         20.3730   -0.0410    2.0890 N.3   162  MET162     -0.1245
     81  CA        19.1370    0.5950    1.6490 C.3   162  MET162      0.1570
     82  C         19.3770    1.6890    0.6100 C.2   162  MET162      0.2261
     83  O         18.6450    1.7690   -0.3820 O.2   162  MET162     -0.2867
     84  CB        18.3770    1.1390    2.8500 C.3   162  MET162      0.0387
     85  CG        17.8370    0.0480    3.7440 C.3   162  MET162      0.0595
     86  SD        16.8730   -1.1990    2.8620 S.3   162  MET162     -0.1393
     87  CE        15.6060   -0.2020    2.0700 C.3   162  MET162      0.0692
     88  N         19.9900   -0.2260   -2.4800 N.3   165  ARG165     -0.1231
     89  CA        18.8090   -0.9650   -2.9450 C.3   165  ARG165      0.1694
     90  C         17.8400   -0.0060   -3.6480 C.2   165  ARG165      0.2591
     91  O         17.2630   -0.3210   -4.7080 O.2   165  ARG165     -0.2718
     92  CB        18.1320   -1.6590   -1.7520 C.3   165  ARG165      0.0321
     93  CG        16.8420   -2.4110   -2.0750 C.3   165  ARG165      0.0489
     94  CD        16.4890   -3.4560   -0.9970 C.3   165  ARG165      0.2205
     95  NE        15.6740   -2.9170    0.0950 N.pl3 165  ARG165     -0.0865
     96  CZ        14.8910   -3.6500    0.8860 C.cat 165  ARG165      0.5346
     97  NH1       14.1800   -3.0630    1.8390 N.pl3 165  ARG165      0.1354
     98  NH2       14.7870   -4.9670    0.7160 N.pl3 165  ARG165      0.1354
     99  N         17.6540    1.1690   -3.0360 N.am  166  ARG166     -0.1980
    100  CA        16.7690    2.2050   -3.5660 C.3   166  ARG166      0.1597
    101  C         17.4140    2.9930   -4.7090 C.2   166  ARG166      0.2287
    102  O         18.6270    2.9200   -4.9210 O.2   166  ARG166     -0.2864
    103  CB        16.3550    3.1600   -2.4510 C.3   166  ARG166      0.0334
    104  CG        15.5630    2.4690   -1.3580 C.3   166  ARG166      0.0492
    105  CD        15.6300    3.2600   -0.0760 C.3   166  ARG166      0.2205
    106  NE        14.6120    2.8230    0.8750 N.pl3 166  ARG166     -0.0865
    107  CZ        14.5040    3.3240    2.0960 C.cat 166  ARG166      0.5346
    108  NH1       15.3670    4.2640    2.5000 N.pl3 166  ARG166      0.1354
    109  NH2       13.5350    2.8910    2.9090 N.pl3 166  ARG166      0.1354
    110  N         18.5580    2.7460    8.9490 N.3   184  GLU184     -0.1245
    111  CA        17.4690    3.3430    8.1800 C.3   184  GLU184      0.1567
    112  C         16.1760    2.7750    8.7480 C.2   184  GLU184      0.2260
    113  O         16.1030    1.5880    9.0700 O.2   184  GLU184     -0.2867
    114  CB        17.6000    2.9530    6.7130 C.3   184  GLU184      0.0388
    115  CG        16.7310    3.7350    5.6770 C.3   184  GLU184      0.1160
    116  CD        15.2800    3.3130    5.6190 C.2   184  GLU184      0.3649
    117  OE1       14.9300    2.1930    6.0720 O.co2 184  GLU184     -0.2457
    118  OE2       14.4780    4.1060    5.0850 O.co2 184  GLU184     -0.2457
    119  N         11.8140    3.6760    7.9340 N.3   186  PHE186     -0.1241
    120  CA        10.7010    4.4530    7.3580 C.3   186  PHE186      0.1605
    121  C         11.1330    5.7300    6.6460 C.2   186  PHE186      0.2264
    122  O         10.5050    6.7660    6.7920 O.2   186  PHE186     -0.2867
    123  CB         9.5470    4.6890    8.3610 C.3   186  PHE186      0.0534
    124  CG        10.0010    5.2050    9.7070 C.ar  186  PHE186     -0.0203
    125  CD1       10.2340    4.3230   10.7600 C.ar  186  PHE186     -0.0042
    126  CD2       10.2140    6.5660    9.9130 C.ar  186  PHE186     -0.0042
    127  CE1       10.6720    4.7840   11.9930 C.ar  186  PHE186     -0.0003
    128  CE2       10.6540    7.0540   11.1660 C.ar  186  PHE186     -0.0003
    129  CZ        10.8680    6.1500   12.2100 C.ar  186  PHE186     -0.0000
    130  N         22.4030   -6.9910   10.8460 N.3   225  LYS225     -0.1245
    131  CA        21.6460   -5.8290   11.2920 C.3   225  LYS225      0.1561
    132  C         21.9090   -5.4070   12.7480 C.2   225  LYS225      0.2260
    133  O         21.2910   -4.4530   13.2300 O.2   225  LYS225     -0.2867
    134  CB        20.1420   -6.0660   11.0970 C.3   225  LYS225      0.0271
    135  CG        19.7030   -5.9610    9.6410 C.3   225  LYS225      0.0035
    136  CD        18.1660   -5.8890    9.5700 C.3   225  LYS225      0.0206
    137  CE        17.6620   -5.9740    8.1540 C.3   225  LYS225      0.1093
    138  NZ        16.1640   -5.8880    8.0110 N.3   225  LYS225     -0.1314
@<TRIPOS>BOND
     1   102   101    2
     2   101   100    1
     3    91    90    2
     4    90    99   am
     5    90    89    1
     6   100    99    1
     7   100   103    1
     8    89    88    1
     9    89    92    1
    10    50    51    1
    11   103   104    1
    12    93    92    1
    13    93    94    1
    14    54    51    1
    15    54    55    1
    16    51    52    1
    17    57    56    2
    18   104   105    1
    19    56    58   am
    20    56    55    1
    21    94    95    1
    22    52    53    2
    23    52    59   am
    24    83    82    2
    25   105   106    1
    26    95    96    2
    27    59    60    1
    28    49    47    1
    29    82    81    1
    30    98    96    1
    31    48    47    1
    32   106   107    2
    33    96    97    1
    34    61    60    1
    35    61    62    2
    36    47    46    2
    37    60    63    1
    38    31    29    1
    39    42    41    2
    40    81    80    1
    41    81    84    1
    42    41    40    1
    43    87    86    1
    44   107   108    1
    45   107   109    1
    46    21    22    1
    47    21    19   am
    48    46    45    1
    49    22    23    1
    50    29    26    1
    51    29    30    1
    52    84    85    1
    53    86    85    1
    54    25    23   am
    55    25    26    1
    56    18    19    1
    57    18    17    1
    58    23    24    2
    59    26    27    1
    60    44    45    1
    61    44    43    1
    62    19    20    2
    63    40    43    1
    64    40    39    1
    65    17    12   am
    66    27    28    2
    67    27    32   am
    68    12    13    2
    69    12    11    1
    70   118   116   ar
    71     9     8    1
    72    32    33    1
    73   116   115    1
    74   116   117   ar
    75   115   114    1
    76    11    14    1
    77    11    10    1
    78     7     8    1
    79     7     6    1
    80    14    15    1
    81    14    16    1
    82   121   122    2
    83   121   120    1
    84   114   111    1
    85    33    34    1
    86    33    36    1
    87    34    35    2
    88     6     5    1
    89   120   119    1
    90   120   123    1
    91    77    78    1
    92    77    76    1
    93    37    36    1
    94     5     2    1
    95    78    79    2
    96    36    38    1
    97   138   137    1
    98   137   136    1
    99   111   112    1
   100   111   110    1
   101   123   124    1
   102    76    70   am
   103   112   113    2
   104    71    70    2
   105    70    69    1
   106     2     3    1
   107     2     1    1
   108    65    64    1
   109    65    66    1
   110     3     4    2
   111   136   135    1
   112   135   134    1
   113    66    68   am
   114    66    67    2
   115   124   126   ar
   116   124   125   ar
   117    68    69    1
   118   126   128   ar
   119    69    72    1
   120   125   127   ar
   121   130   131    1
   122   134   131    1
   123   128   129   ar
   124   131   132    1
   125    72    74    1
   126    72    73    1
   127   127   129   ar
   128    73    75    1
   129   132   133    2
