@<TRIPOS>MOLECULE
tmp/3bxgA00.pdb
 148 140 0 0 0
SMALL
GASTEIGER

@<TRIPOS>ATOM
      1  N         68.8380   69.5030   65.8070 N.3    32  LYS32      -0.1245
      2  CA        68.1880   70.7830   65.4990 C.3    32  LYS32       0.1561
      3  C         66.6630   70.6000   65.5730 C.2    32  LYS32       0.2260
      4  O         65.9470   71.4880   66.0200 O.2    32  LYS32      -0.2867
      5  CB        68.6450   71.2760   64.1120 C.3    32  LYS32       0.0271
      6  CG        68.0800   72.6210   63.6700 C.3    32  LYS32       0.0035
      7  CD        68.7300   73.0950   62.3630 C.3    32  LYS32       0.0206
      8  CE        70.0530   73.8450   62.6470 C.3    32  LYS32       0.1093
      9  NZ        70.7700   74.1290   61.3810 N.3    32  LYS32      -0.1314
     10  N         62.0480   85.2010   63.3230 N.3    56  THR56      -0.1203
     11  CA        63.0890   85.4180   62.3260 C.3    56  THR56       0.1994
     12  C         63.1660   84.2300   61.3870 C.2    56  THR56       0.2618
     13  O         62.5000   83.1930   61.6050 O.2    56  THR56      -0.2717
     14  CB        64.4830   85.6240   62.9430 C.3    56  THR56       0.1784
     15  OG1       64.9050   84.3940   63.5540 O.3    56  THR56      -0.2211
     16  CG2       64.4630   86.7460   63.9650 C.3    56  THR56       0.0376
     17  N         64.0000   84.3620   60.3540 N.am   57  GLY57      -0.1942
     18  CA        64.3300   83.2040   59.5280 C.3    57  GLY57       0.2014
     19  C         65.4880   82.3610   60.0270 C.2    57  GLY57       0.2639
     20  O         65.7470   82.2920   61.2330 O.2    57  GLY57      -0.2714
     21  N         66.1770   81.7060   59.0920 N.am   58  GLY58      -0.1939
     22  CA        67.2920   80.8210   59.4300 C.3    58  GLY58       0.2014
     23  C         66.8310   79.3850   59.6130 C.2    58  GLY58       0.2640
     24  O         65.6430   79.1290   59.8100 O.2    58  GLY58      -0.2714
     25  N         67.7590   78.4370   59.5520 N.am   59  THR59      -0.1936
     26  CA        67.3850   77.0150   59.5580 C.3    59  THR59       0.2028
     27  C         66.8490   76.5380   60.9120 C.2    59  THR59       0.2643
     28  O         66.0660   75.5610   60.9720 O.2    59  THR59      -0.2714
     29  CB        68.5570   76.1100   59.1570 C.3    59  THR59       0.1808
     30  OG1       69.5800   76.2110   60.1550 O.3    59  THR59      -0.2208
     31  CG2       69.1080   76.4980   57.7800 C.3    59  THR59       0.0379
     32  N         67.2850   77.1860   61.9880 N.am   60  THR60      -0.1936
     33  CA        66.8410   76.7700   63.3300 C.3    60  THR60       0.2028
     34  C         65.3790   77.1280   63.5780 C.2    60  THR60       0.2642
     35  O         64.6020   76.3030   64.0570 O.2    60  THR60      -0.2714
     36  CB        67.7580   77.3060   64.4860 C.3    60  THR60       0.1808
     37  OG1       69.1290   77.0270   64.1590 O.3    60  THR60      -0.2208
     38  CG2       67.4440   76.5440   65.7930 C.3    60  THR60       0.0379
     39  N         64.9860   78.3440   63.2290 N.am   61  ILE61      -0.1977
     40  CA        63.5700   78.6750   63.3540 C.3    61  ILE61       0.1596
     41  C         62.7190   77.9010   62.3130 C.2    61  ILE61       0.2287
     42  O         61.5590   77.5910   62.5980 O.2    61  ILE61      -0.2864
     43  CB        63.3370   80.1870   63.3380 C.3    61  ILE61       0.0276
     44  CG1       64.2630   80.8720   64.3690 C.3    61  ILE61       0.0022
     45  CG2       61.8620   80.4910   63.6670 C.3    61  ILE61       0.0022
     46  CD1       64.2860   80.2130   65.8290 C.3    61  ILE61       0.0001
     47  N         66.5790   90.6570   55.1380 N.3    86  LEU86      -0.1245
     48  CA        67.9180   90.6390   55.7660 C.3    86  LEU86       0.1561
     49  C         69.0320   90.0830   54.8490 C.2    86  LEU86       0.2260
     50  O         70.1740   89.8640   55.2920 O.2    86  LEU86      -0.2867
     51  CB        67.9010   89.9510   57.1470 C.3    86  LEU86       0.0270
     52  CG        67.0970   90.6390   58.2720 C.3    86  LEU86       0.0019
     53  CD1       67.1930   89.8800   59.5930 C.3    86  LEU86       0.0001
     54  CD2       67.5470   92.0950   58.4770 C.3    86  LEU86       0.0001
     55  N         68.8070   87.1240   53.1660 N.3    88  GLU88      -0.1245
     56  CA        68.7600   85.6440   53.1570 C.3    88  GLU88       0.1567
     57  C         68.1820   85.1150   51.8260 C.2    88  GLU88       0.2260
     58  O         67.3660   85.7970   51.1870 O.2    88  GLU88      -0.2867
     59  CB        67.8990   85.1190   54.3290 C.3    88  GLU88       0.0388
     60  CG        68.3800   85.5070   55.7580 C.3    88  GLU88       0.1160
     61  CD        69.5990   84.7290   56.2280 C.2    88  GLU88       0.3649
     62  OE1       70.2890   84.0970   55.3970 O.co2  88  GLU88      -0.2457
     63  OE2       69.8810   84.7510   57.4580 O.co2  88  GLU88      -0.2457
     64  N         63.5720   83.7750   67.7960 N.3   147  HIS147     -0.1226
     65  CA        64.6880   84.1890   66.9480 C.3   147  HIS147      0.1752
     66  C         65.9050   83.2580   67.0020 C.2   147  HIS147      0.2597
     67  O         66.1810   82.6320   68.0270 O.2   147  HIS147     -0.2718
     68  CB        65.1160   85.6440   67.2360 C.3   147  HIS147      0.0759
     69  CG        65.9060   85.8340   68.5050 C.ar  147  HIS147      0.0818
     70  ND1       67.2800   85.7230   68.5500 N.ar  147  HIS147     -0.2268
     71  CD2       65.5200   86.2110   69.7500 C.ar  147  HIS147      0.1154
     72  CE1       67.7100   85.9840   69.7780 C.ar  147  HIS147      0.1986
     73  NE2       66.6610   86.2920   70.5290 N.ar  147  HIS147     -0.2212
     74  N         66.6780   83.2600   65.9260 N.am  148  GLY148     -0.1942
     75  CA        67.9170   82.4850   65.8980 C.3   148  GLY148      0.2014
     76  C         69.0820   83.3600   66.3700 C.2   148  GLY148      0.2639
     77  O         68.9200   84.5740   66.5830 O.2   148  GLY148     -0.2714
     78  N         70.2490   82.7440   66.5480 N.am  149  ILE149     -0.1963
     79  CA        71.4980   83.4610   66.8100 C.3   149  ILE149      0.1727
     80  C         72.5330   82.7730   65.9290 C.2   149  ILE149      0.2616
     81  O         72.5200   81.5460   65.8090 O.2   149  ILE149     -0.2715
     82  CB        71.9730   83.3610   68.3010 C.3   149  ILE149      0.0290
     83  CG1       70.9340   83.9770   69.2400 C.3   149  ILE149      0.0022
     84  CG2       73.4150   83.9980   68.5090 C.3   149  ILE149      0.0023
     85  CD1       71.0900   83.5510   70.7300 C.3   149  ILE149      0.0001
     86  N         73.4040   83.5520   65.3020 N.am  150  GLY150     -0.1955
     87  CA        74.4660   82.9760   64.4700 C.3   150  GLY150      0.1869
     88  C         75.8350   83.5680   64.7280 C.2   150  GLY150      0.2309
     89  O         75.9720   84.6260   65.3660 O.2   150  GLY150     -0.2863
     90  N         77.1240   84.3130   59.1920 N.3   155  MET155     -0.1245
     91  CA        75.8970   84.9770   58.7730 C.3   155  MET155      0.1570
     92  C         76.1530   86.0390   57.7250 C.2   155  MET155      0.2261
     93  O         75.3780   86.1670   56.7950 O.2   155  MET155     -0.2867
     94  CB        75.1270   85.5630   59.9540 C.3   155  MET155      0.0387
     95  CG        74.3710   84.5190   60.7480 C.3   155  MET155      0.0595
     96  SD        73.6940   83.2080   59.6940 S.3   155  MET155     -0.1393
     97  CE        73.5570   81.9310   60.9200 C.3   155  MET155      0.0692
     98  N         76.7040   84.0850   54.4590 N.3   158  ARG158     -0.1231
     99  CA        75.4710   83.4450   53.9690 C.3   158  ARG158      0.1694
    100  C         74.5330   84.4410   53.2720 C.2   158  ARG158      0.2591
    101  O         73.8400   84.0860   52.3240 O.2   158  ARG158     -0.2718
    102  CB        74.7250   82.7300   55.1180 C.3   158  ARG158      0.0321
    103  CG        73.4900   81.9400   54.6800 C.3   158  ARG158      0.0489
    104  CD        72.8890   81.1160   55.8110 C.3   158  ARG158      0.2205
    105  NE        71.9980   81.9000   56.6840 N.pl3 158  ARG158     -0.0865
    106  CZ        71.3240   81.3900   57.7260 C.cat 158  ARG158      0.5346
    107  NH1       70.5030   82.1540   58.4310 N.pl3 158  ARG158      0.1354
    108  NH2       71.4540   80.1070   58.0530 N.pl3 158  ARG158      0.1354
    109  N         74.5040   85.6750   53.7780 N.am  159  ARG159     -0.1980
    110  CA        73.6470   86.7300   53.2650 C.3   159  ARG159      0.1597
    111  C         74.3310   87.4600   52.1130 C.2   159  ARG159      0.2287
    112  O         75.4870   87.1820   51.7920 O.2   159  ARG159     -0.2864
    113  CB        73.3060   87.6980   54.4080 C.3   159  ARG159      0.0334
    114  CG        72.4760   87.0450   55.5470 C.3   159  ARG159      0.0492
    115  CD        72.5790   87.8720   56.8300 C.3   159  ARG159      0.2205
    116  NE        71.4860   87.5470   57.7490 N.pl3 159  ARG159     -0.0865
    117  CZ        71.3490   88.0720   58.9640 C.cat 159  ARG159      0.5346
    118  NH1       72.2400   88.9570   59.4000 N.pl3 159  ARG159      0.1354
    119  NH2       70.3080   87.7280   59.7320 N.pl3 159  ARG159      0.1354
    120  N         75.4790   87.3920   65.7810 N.3   177  GLU177     -0.1245
    121  CA        74.4440   88.0730   65.0280 C.3   177  GLU177      0.1567
    122  C         73.0900   87.5540   65.5110 C.2   177  GLU177      0.2260
    123  O         72.9420   86.3610   65.8040 O.2   177  GLU177     -0.2867
    124  CB        74.6130   87.7910   63.5330 C.3   177  GLU177      0.0388
    125  CG        73.6280   88.5040   62.5600 C.3   177  GLU177      0.1160
    126  CD        72.2190   87.8750   62.4700 C.2   177  GLU177      0.3649
    127  OE1       72.0320   86.6970   62.8480 O.co2 177  GLU177     -0.2457
    128  OE2       71.2890   88.5710   61.9950 O.co2 177  GLU177     -0.2457
    129  N         68.7950   88.7020   64.4660 N.3   179  PHE179     -0.1241
    130  CA        67.7780   89.5180   63.8280 C.3   179  PHE179      0.1605
    131  C         68.3450   90.7540   63.1340 C.2   179  PHE179      0.2264
    132  O         67.7670   91.8300   63.2040 O.2   179  PHE179     -0.2867
    133  CB        66.5790   89.8270   64.7810 C.3   179  PHE179      0.0534
    134  CG        66.9870   90.2800   66.1710 C.ar  179  PHE179     -0.0203
    135  CD1       67.0010   89.3780   67.2210 C.ar  179  PHE179     -0.0042
    136  CD2       67.3320   91.6120   66.4290 C.ar  179  PHE179     -0.0042
    137  CE1       67.3750   89.7620   68.5010 C.ar  179  PHE179     -0.0003
    138  CE2       67.7010   92.0190   67.7130 C.ar  179  PHE179     -0.0003
    139  CZ        67.7300   91.0910   68.7550 C.ar  179  PHE179     -0.0000
    140  N         78.5950   77.4340   67.8190 N.3   218  LYS218     -0.1245
    141  CA        77.9110   78.6810   68.2030 C.3   218  LYS218      0.1561
    142  C         78.1260   79.0620   69.6540 C.2   218  LYS218      0.2260
    143  O         77.4990   80.0200   70.1420 O.2   218  LYS218     -0.2867
    144  CB        76.4060   78.6010   67.9460 C.3   218  LYS218      0.0271
    145  CG        75.9880   78.5030   66.4410 C.3   218  LYS218      0.0035
    146  CD        74.4950   78.7430   66.3290 C.3   218  LYS218      0.0206
    147  CE        74.0270   78.7380   64.8700 C.3   218  LYS218      0.1093
    148  NZ        72.5350   78.9310   64.9280 N.3   218  LYS218     -0.1314
@<TRIPOS>BOND
     1    58    57    2
     2   112   111    2
     3    57    56    1
     4   111   110    1
     5   101   100    2
     6    56    55    1
     7    56    59    1
     8   110   109    1
     9   110   113    1
    10   100   109   am
    11   100    99    1
    12    99    98    1
    13    99   102    1
    14    59    60    1
    15   113   114    1
    16   103   102    1
    17   103   104    1
    18    49    50    2
    19    49    48    1
    20    47    48    1
    21    62    61   ar
    22   114   115    1
    23    60    61    1
    24    48    51    1
    25   104   105    1
    26    61    63   ar
    27   105   106    2
    28    93    92    2
    29   115   116    1
    30    51    52    1
    31    92    91    1
    32   106   108    1
    33   106   107    1
    34   116   117    2
    35    31    29    1
    36    52    54    1
    37    52    53    1
    38    91    90    1
    39    91    94    1
    40   117   118    1
    41   117   119    1
    42    21    22    1
    43    21    19   am
    44    29    26    1
    45    29    30    1
    46    22    23    1
    47    18    19    1
    48    18    17    1
    49    25    26    1
    50    25    23   am
    51    26    27    1
    52    23    24    2
    53    96    95    1
    54    96    97    1
    55    94    95    1
    56    19    20    2
    57    17    12   am
    58    27    28    2
    59    27    32   am
    60     9     8    1
    61    12    13    2
    62    12    11    1
    63    32    33    1
    64   128   126   ar
    65    41    42    2
    66    41    40    1
    67    11    14    1
    68    11    10    1
    69     7     8    1
    70     7     6    1
    71   126   125    1
    72   126   127   ar
    73   125   124    1
    74    14    15    1
    75    14    16    1
    76   131   132    2
    77   131   130    1
    78    39    40    1
    79    39    34   am
    80    33    34    1
    81    33    36    1
    82    43    40    1
    83    43    45    1
    84    43    44    1
    85   124   121    1
    86    34    35    2
    87     6     5    1
    88   130   129    1
    89   130   133    1
    90     5     2    1
    91    37    36    1
    92    44    46    1
    93    87    88    1
    94    87    86    1
    95    36    38    1
    96    88    89    2
    97   133   134    1
    98   147   148    1
    99   147   146    1
   100   121   122    1
   101   121   120    1
   102    86    80   am
   103     2     3    1
   104     2     1    1
   105   122   123    2
   106     3     4    2
   107    81    80    2
   108    75    74    1
   109    75    76    1
   110    74    66   am
   111    80    79    1
   112   134   136   ar
   113   134   135   ar
   114   146   145    1
   115    76    78   am
   116    76    77    2
   117   136   138   ar
   118   145   144    1
   119    78    79    1
   120    79    82    1
   121    65    66    1
   122    65    68    1
   123    65    64    1
   124    66    67    2
   125   135   137   ar
   126    68    69    1
   127   138   139   ar
   128   140   141    1
   129   144   141    1
   130   141   142    1
   131    82    84    1
   132    82    83    1
   133   137   139   ar
   134    69    70   ar
   135    69    71   ar
   136    70    72   ar
   137    83    85    1
   138   142   143    2
   139    71    73   ar
   140    72    73   ar
