@<TRIPOS>MOLECULE
tmp/3bxhB00.pdb
 152 143 0 0 0
SMALL
GASTEIGER

@<TRIPOS>ATOM
      1  N         37.8780   69.1360   46.3100 N.3    39  LYS39      -0.1245
      2  CA        38.6760   70.2500   45.8160 C.3    39  LYS39       0.1561
      3  C         40.0770   69.8000   45.3840 C.2    39  LYS39       0.2260
      4  O         40.6460   70.3290   44.4240 O.2    39  LYS39      -0.2867
      5  CB        38.7470   71.3750   46.8480 C.3    39  LYS39       0.0271
      6  CG        39.4670   72.6320   46.3270 C.3    39  LYS39       0.0035
      7  CD        39.3610   73.8310   47.2870 C.3    39  LYS39       0.0206
      8  CE        38.0340   74.5640   47.0850 C.3    39  LYS39       0.1093
      9  NZ        37.7770   75.5830   48.1450 N.3    39  LYS39      -0.1314
     10  N         45.9930   82.8080   39.2580 N.3    63  THR63      -0.1203
     11  CA        45.3190   83.6590   40.2440 C.3    63  THR63       0.1994
     12  C         45.4670   83.0470   41.6330 C.2    63  THR63       0.2618
     13  O         45.9830   81.9310   41.7820 O.2    63  THR63      -0.2717
     14  CB        43.7860   83.8300   39.9310 C.3    63  THR63       0.1784
     15  OG1       43.0920   82.5810   40.1160 O.3    63  THR63      -0.2211
     16  CG2       43.5570   84.3810   38.4910 C.3    63  THR63       0.0376
     17  N         45.0240   83.7720   42.6580 N.am   64  GLY64      -0.1942
     18  CA        44.9690   83.2030   43.9870 C.3    64  GLY64       0.2014
     19  C         43.6430   82.4820   44.2400 C.2    64  GLY64       0.2639
     20  O         42.9370   82.0780   43.2940 O.2    64  GLY64      -0.2714
     21  N         43.3160   82.3380   45.5210 N.am   65  GLY65      -0.1939
     22  CA        42.1220   81.6330   45.9820 C.3    65  GLY65       0.2014
     23  C         42.4770   80.2160   46.3880 C.2    65  GLY65       0.2640
     24  O         43.5310   79.6900   46.0110 O.2    65  GLY65      -0.2714
     25  N         41.5720   79.5780   47.1230 N.am   66  THR66      -0.1936
     26  CA        41.8320   78.2560   47.6780 C.3    66  THR66       0.2028
     27  C         41.8200   77.1690   46.6010 C.2    66  THR66       0.2643
     28  O         42.4520   76.1090   46.7550 O.2    66  THR66      -0.2714
     29  CB        40.7870   77.9010   48.7360 C.3    66  THR66       0.1808
     30  OG1       39.4880   77.8630   48.1270 O.3    66  THR66      -0.2208
     31  CG2       40.8150   78.9240   49.8750 C.3    66  THR66       0.0379
     32  N         41.0910   77.4160   45.5140 N.am   67  THR67      -0.1936
     33  CA        40.9960   76.3950   44.4680 C.3    67  THR67       0.2028
     34  C         42.3030   76.2960   43.6730 C.2    67  THR67       0.2642
     35  O         42.7980   75.2090   43.4160 O.2    67  THR67      -0.2714
     36  CB        39.7370   76.5760   43.5370 C.3    67  THR67       0.1808
     37  OG1       38.5730   76.7100   44.3540 O.3    67  THR67      -0.2208
     38  CG2       39.5540   75.3100   42.6620 C.3    67  THR67       0.0379
     39  N         42.8910   77.4320   43.3080 N.am   68  ILE68      -0.1977
     40  CA        44.1620   77.3690   42.5850 C.3    68  ILE68       0.1596
     41  C         45.2820   76.9180   43.5450 C.2    68  ILE68       0.2287
     42  O         46.2480   76.2570   43.1420 O.2    68  ILE68      -0.2864
     43  CB        44.4470   78.7100   41.8190 C.3    68  ILE68       0.0276
     44  CG1       43.2250   79.1110   40.9790 C.3    68  ILE68       0.0022
     45  CG2       45.6710   78.5480   40.9080 C.3    68  ILE68       0.0022
     46  CD1       42.7010   77.9790   40.0380 C.3    68  ILE68       0.0001
     47  N         47.1950   90.7990   43.2930 N.3    92  GLY92      -0.1210
     48  CA        46.7910   90.2390   44.5960 C.3    92  GLY92       0.1956
     49  C         45.3740   90.5710   45.0320 C.2    92  GLY92       0.2611
     50  O         44.7590   89.8040   45.8030 O.2    92  GLY92      -0.2717
     51  N         44.8710   91.7200   44.5650 N.am   93  LEU93      -0.1979
     52  CA        43.4150   91.9860   44.5490 C.3    93  LEU93       0.1596
     53  C         42.7490   92.1200   45.9270 C.2    93  LEU93       0.2287
     54  O         41.5340   91.9400   46.0640 O.2    93  LEU93      -0.2864
     55  CB        42.6970   90.9230   43.6960 C.3    93  LEU93       0.0297
     56  CG        43.0570   90.8040   42.2060 C.3    93  LEU93       0.0022
     57  CD1       42.3090   89.6440   41.6210 C.3    93  LEU93       0.0001
     58  CD2       42.7380   92.0720   41.4260 C.3    93  LEU93       0.0001
     59  N         43.2330   90.2790   48.5540 N.3    95  GLU95      -0.1245
     60  CA        43.2020   89.0140   49.2920 C.3    95  GLU95       0.1567
     61  C         44.1990   89.0780   50.4480 C.2    95  GLU95       0.2260
     62  O         45.2310   89.7750   50.3590 O.2    95  GLU95      -0.2867
     63  CB        43.5660   87.8300   48.3840 C.3    95  GLU95       0.0388
     64  CG        42.6060   87.5780   47.2270 C.3    95  GLU95       0.1160
     65  CD        41.3500   86.8240   47.6400 C.2    95  GLU95       0.3649
     66  OE1       41.0580   86.7150   48.8520 O.co2  95  GLU95      -0.2457
     67  OE2       40.6460   86.3280   46.7390 O.co2  95  GLU95      -0.2457
     68  N         47.6140   85.6590   44.7410 N.3   101  ALA101     -0.1245
     69  CA        48.2530   85.0520   43.5830 C.3   101  ALA101      0.1562
     70  C         49.7500   84.8080   43.7870 C.2   101  ALA101      0.2260
     71  O         50.2320   83.7660   43.3790 O.2   101  ALA101     -0.2867
     72  CB        48.0250   85.8710   42.3530 C.3   101  ALA101      0.0290
     73  N         40.5870   80.9900   39.1230 N.3   155  GLY155     -0.1210
     74  CA        39.3790   80.5670   39.8600 C.3   155  GLY155      0.1956
     75  C         38.1800   81.3970   39.4260 C.2   155  GLY155      0.2612
     76  O         38.3170   82.3570   38.6420 O.2   155  GLY155     -0.2717
     77  N         37.0110   81.0130   39.9240 N.am  156  ILE156     -0.1965
     78  CA        35.7890   81.7810   39.7480 C.3   156  ILE156      0.1727
     79  C         35.0780   81.8120   41.0940 C.2   156  ILE156      0.2616
     80  O         34.9630   80.7860   41.7460 O.2   156  ILE156     -0.2715
     81  CB        34.8320   81.1630   38.6790 C.3   156  ILE156      0.0290
     82  CG1       35.5050   81.0590   37.3020 C.3   156  ILE156      0.0022
     83  CG2       33.5030   81.9870   38.5840 C.3   156  ILE156      0.0023
     84  CD1       34.6990   80.1620   36.2740 C.3   156  ILE156      0.0001
     85  N         34.5850   82.9800   41.4990 N.am  157  GLY157     -0.1955
     86  CA        33.9240   83.1080   42.7970 C.3   157  GLY157      0.1869
     87  C         32.5420   83.7200   42.7110 C.2   157  GLY157      0.2309
     88  O         32.2350   84.3910   41.7350 O.2   157  GLY157     -0.2863
     89  N         33.1990   86.9250   47.4020 N.3   162  MET162     -0.1245
     90  CA        34.4900   87.5150   47.0740 C.3   162  MET162      0.1570
     91  C         34.6420   88.9500   47.5940 C.2   162  MET162      0.2261
     92  O         35.7090   89.3270   48.1120 O.2   162  MET162     -0.2867
     93  CB        34.7620   87.4350   45.5600 C.3   162  MET162      0.0387
     94  CG        34.9690   86.0090   45.0370 C.3   162  MET162      0.0595
     95  SD        36.2050   85.1000   46.0090 S.3   162  MET162     -0.1393
     96  CE        37.5840   86.2570   45.9720 C.3   162  MET162      0.0692
     97  N         35.3520   88.4930   51.2680 N.3   165  ARG165     -0.1231
     98  CA        36.6410   87.8920   51.6070 C.3   165  ARG165      0.1694
     99  C         37.8020   88.8770   51.4550 C.2   165  ARG165      0.2591
    100  O         38.7140   88.8840   52.2680 O.2   165  ARG165     -0.2718
    101  CB        36.9170   86.6300   50.7700 C.3   165  ARG165      0.0321
    102  CG        38.0990   85.8720   51.2940 C.3   165  ARG165      0.0489
    103  CD        38.2770   84.5260   50.6000 C.3   165  ARG165      0.2205
    104  NE        38.9300   84.6670   49.3090 N.pl3 165  ARG165     -0.0865
    105  CZ        39.0260   83.6780   48.4340 C.cat 165  ARG165      0.5346
    106  NH1       39.6450   83.8650   47.2750 N.pl3 165  ARG165      0.1354
    107  NH2       38.5100   82.4920   48.7340 N.pl3 165  ARG165      0.1354
    108  N         37.7640   89.6980   50.4120 N.am  166  ARG166     -0.1980
    109  CA        38.8120   90.6710   50.1680 C.3   166  ARG166      0.1597
    110  C         38.5380   91.9180   50.9740 C.2   166  ARG166      0.2287
    111  O         37.4470   92.0780   51.5060 O.2   166  ARG166     -0.2864
    112  CB        38.8450   91.0300   48.6880 C.3   166  ARG166      0.0334
    113  CG        39.1230   89.8510   47.8080 C.3   166  ARG166      0.0492
    114  CD        38.5740   90.1680   46.4420 C.3   166  ARG166      0.2205
    115  NE        39.1720   89.3310   45.4320 N.pl3 166  ARG166     -0.0865
    116  CZ        38.8140   89.3460   44.1570 C.cat 166  ARG166      0.5346
    117  NH1       37.8390   90.1510   43.7350 N.pl3 166  ARG166      0.1354
    118  NH2       39.4320   88.5430   43.3130 N.pl3 166  ARG166      0.1354
    119  N         32.6930   86.5510   39.8620 N.3   184  GLU184     -0.1231
    120  CA        33.9740   87.2590   39.9150 C.3   184  GLU184      0.1699
    121  C         35.0730   86.3450   39.3660 C.2   184  GLU184      0.2592
    122  O         35.0840   85.1430   39.6470 O.2   184  GLU184     -0.2718
    123  CB        34.3120   87.6700   41.3640 C.3   184  GLU184      0.0402
    124  CG        35.4410   88.7350   41.4830 C.3   184  GLU184      0.1161
    125  CD        36.8370   88.1330   41.4260 C.2   184  GLU184      0.3649
    126  OE1       36.9690   86.9040   41.5580 O.co2 184  GLU184     -0.2457
    127  OE2       37.8220   88.8890   41.2730 O.co2 184  GLU184     -0.2457
    128  N         35.9960   86.9190   38.6100 N.am  185  ALA185     -0.1966
    129  CA        37.1890   86.2080   38.1660 C.3   185  ALA185      0.1728
    130  C         38.2780   87.2370   37.9410 C.2   185  ALA185      0.2616
    131  O         38.0150   88.2880   37.3460 O.2   185  ALA185     -0.2715
    132  CB        36.9170   85.4510   36.8820 C.3   185  ALA185      0.0334
    133  N         39.4800   86.9170   38.4220 N.am  186  PHE186     -0.1974
    134  CA        40.6870   87.7550   38.2980 C.3   186  PHE186      0.1639
    135  C         40.4550   89.2840   38.3810 C.2   186  PHE186      0.2290
    136  O         40.9920   90.0520   37.5820 O.2   186  PHE186     -0.2864
    137  CB        41.5390   87.3460   37.0710 C.3   186  PHE186      0.0560
    138  CG        40.7460   87.1630   35.7990 C.ar  186  PHE186     -0.0200
    139  CD1       40.2800   85.9030   35.4250 C.ar  186  PHE186     -0.0042
    140  CD2       40.4540   88.2520   34.9850 C.ar  186  PHE186     -0.0042
    141  CE1       39.5340   85.7370   34.2540 C.ar  186  PHE186     -0.0003
    142  CE2       39.6940   88.0970   33.8180 C.ar  186  PHE186     -0.0003
    143  CZ        39.2410   86.8340   33.4520 C.ar  186  PHE186     -0.0000
    144  N         28.6040   77.5880   43.8340 N.3   225  LYS225     -0.1245
    145  CA        29.1330   78.3100   42.6770 C.3   225  LYS225      0.1561
    146  C         28.3770   78.1150   41.3640 C.2   225  LYS225      0.2260
    147  O         28.7670   78.6840   40.3560 O.2   225  LYS225     -0.2867
    148  CB        30.6400   78.0100   42.4770 C.3   225  LYS225      0.0271
    149  CG        31.5530   78.7160   43.5100 C.3   225  LYS225      0.0035
    150  CD        33.0230   78.5090   43.1370 C.3   225  LYS225      0.0206
    151  CE        33.9830   79.0190   44.2260 C.3   225  LYS225      0.1093
    152  NZ        35.4050   78.9000   43.7980 N.3   225  LYS225     -0.1314
@<TRIPOS>BOND
     1   143   142   ar
     2   143   141   ar
     3   142   140   ar
     4   141   139   ar
     5   140   138   ar
     6   139   138   ar
     7   138   137    1
     8    84    82    1
     9   132   129    1
    10   137   134    1
    11    82    81    1
    12   131   130    2
    13   136   135    2
    14   130   129    1
    15   130   133   am
    16   129   128    1
    17   134   135    1
    18   134   133    1
    19    16    14    1
    20    83    81    1
    21   128   121   am
    22    76    75    2
    23    81    78    1
    24    73    74    1
    25    10    11    1
    26   121   122    2
    27   121   120    1
    28    75    74    1
    29    75    77   am
    30    78    77    1
    31    78    79    1
    32   119   120    1
    33   120   123    1
    34    14    15    1
    35    14    11    1
    36    46    44    1
    37    11    12    1
    38   147   146    2
    39    45    43    1
    40    44    43    1
    41    79    85   am
    42    79    80    2
    43   127   125   ar
    44   123   124    1
    45   146   145    1
    46   125   124    1
    47   125   126   ar
    48    58    56    1
    49    85    86    1
    50    57    56    1
    51    12    13    2
    52    12    17   am
    53    88    87    2
    54    43    40    1
    55    56    55    1
    56    72    69    1
    57   148   145    1
    58   148   149    1
    59    40    39    1
    60    40    41    1
    61    17    18    1
    62    38    36    1
    63   145   144    1
    64    87    86    1
    65   150   149    1
    66   150   151    1
    67    42    41    2
    68    47    48    1
    69    20    19    2
    70    39    34   am
    71   118   116    1
    72    71    70    2
    73    35    34    2
    74    36    37    1
    75    36    33    1
    76    69    70    1
    77    69    68    1
    78    34    33    1
    79    55    52    1
    80   117   116    1
    81   152   151    1
    82    18    19    1
    83   116   115    2
    84    19    21   am
    85     4     3    2
    86    33    32    1
    87    52    51    1
    88    52    53    1
    89    51    49   am
    90    48    49    1
    91    49    50    2
    92    94    93    1
    93    94    95    1
    94     3     2    1
    95   115   114    1
    96    32    27   am
    97    21    22    1
    98    93    90    1
    99     2     1    1
   100     2     5    1
   101    53    54    2
   102    96    95    1
   103    22    23    1
   104    24    23    2
   105     6     5    1
   106     6     7    1
   107    23    25   am
   108   114   113    1
   109    27    28    2
   110    27    26    1
   111    67    65   ar
   112    90    89    1
   113    90    91    1
   114     8     7    1
   115     8     9    1
   116    25    26    1
   117    64    65    1
   118    64    63    1
   119   106   105    1
   120    91    92    2
   121    65    66   ar
   122    26    29    1
   123   113   112    1
   124    30    29    1
   125    63    60    1
   126   105   107    1
   127   105   104    2
   128    59    60    1
   129   112   109    1
   130    29    31    1
   131    60    61    1
   132   104   103    1
   133   109   108    1
   134   109   110    1
   135    62    61    2
   136   108    99   am
   137   103   102    1
   138   101   102    1
   139   101    98    1
   140   110   111    2
   141    97    98    1
   142    99    98    1
   143    99   100    2
