@<TRIPOS>MOLECULE
tmp/3bxmA00.pdb
 203 194 0 0 0
SMALL
GASTEIGER

@<TRIPOS>ATOM
      1  N         21.7840   50.0790   36.2480 N.3   155  PHE155     -0.1227
      2  CA        20.6450   49.1460   36.1660 C.3   155  PHE155      0.1736
      3  C         20.3280   48.6710   34.7300 C.2   155  PHE155      0.2595
      4  O         20.2350   49.4750   33.7570 O.2   155  PHE155     -0.2718
      5  CB        19.4020   49.9070   36.7290 C.3   155  PHE155      0.0547
      6  CG        18.1160   49.1150   36.6600 C.ar  155  PHE155     -0.0202
      7  CD1       18.0050   47.8830   37.3090 C.ar  155  PHE155     -0.0042
      8  CD2       16.9940   49.6890   35.9960 C.ar  155  PHE155     -0.0042
      9  CE1       16.8090   47.1280   37.2630 C.ar  155  PHE155     -0.0003
     10  CE2       15.7860   48.9320   35.9200 C.ar  155  PHE155     -0.0003
     11  CZ        15.7120   47.6750   36.5610 C.ar  155  PHE155     -0.0000
     12  N         20.0280   47.3710   34.6060 N.am  156  ARG156     -0.1980
     13  CA        19.7820   46.7600   33.2640 C.3   156  ARG156      0.1597
     14  C         18.5950   47.3630   32.5280 C.2   156  ARG156      0.2287
     15  O         18.5500   47.4330   31.2950 O.2   156  ARG156     -0.2864
     16  CB        19.7120   45.2280   33.3920 C.3   156  ARG156      0.0334
     17  CG        18.4070   44.7500   34.1570 C.3   156  ARG156      0.0492
     18  CD        18.4350   43.2270   34.3320 C.3   156  ARG156      0.2205
     19  NE        19.2810   42.7760   35.4660 N.pl3 156  ARG156     -0.0865
     20  CZ        18.9350   42.9890   36.7420 C.cat 156  ARG156      0.5346
     21  NH1       17.7580   43.5950   36.9880 N.pl3 156  ARG156      0.1354
     22  NH2       19.7170   42.5850   37.7480 N.pl3 156  ARG156      0.1354
     23  N         14.6950   41.8380   36.1040 N.3   203  ASN203     -0.1240
     24  CA        13.7210   42.5180   35.2850 C.3   203  ASN203      0.1653
     25  C         14.3300   43.7070   34.5530 C.2   203  ASN203      0.2266
     26  O         15.3950   44.2280   34.9270 O.2   203  ASN203     -0.2867
     27  CB        12.4950   42.9450   36.1460 C.3   203  ASN203      0.1155
     28  CG        12.7280   44.2830   36.8440 C.2   203  ASN203      0.2627
     29  OD1       12.7030   45.3360   36.2120 O.2   203  ASN203     -0.2716
     30  ND2       12.8820   44.2560   38.1690 N.am  203  ASN203     -0.0877
     31  N         12.3100   42.2010   51.1540 N.3   323  HIS323     -0.1241
     32  CA        11.5300   41.2070   50.3820 C.3   323  HIS323      0.1621
     33  C         11.9280   39.7480   50.6560 C.2   323  HIS323      0.2264
     34  O         13.0020   39.4760   51.2850 O.2   323  HIS323     -0.2867
     35  CB        11.5870   41.5560   48.8790 C.3   323  HIS323      0.0745
     36  CG        12.9070   41.2500   48.2100 C.ar  323  HIS323      0.0817
     37  ND1       13.0050   40.1770   47.3530 N.ar  323  HIS323     -0.2268
     38  CD2       14.0500   41.9740   48.0500 C.ar  323  HIS323      0.1154
     39  CE1       14.1990   40.2020   46.7530 C.ar  323  HIS323      0.1986
     40  NE2       14.8560   41.2680   47.1910 N.ar  323  HIS323     -0.2212
     41  N         20.5340   37.2480   48.0220 N.3   333  ASP333     -0.1239
     42  CA        19.4130   38.1760   47.6340 C.3   333  ASP333      0.1674
     43  C         18.0700   37.3910   47.5400 C.2   333  ASP333      0.2266
     44  O         17.8370   36.7010   46.5570 O.2   333  ASP333     -0.2867
     45  CB        19.8310   38.8720   46.3360 C.3   333  ASP333      0.1410
     46  CG        18.8040   39.8710   45.8380 C.2   333  ASP333      0.3668
     47  OD1       17.9090   40.1740   46.6720 O.co2 333  ASP333     -0.2456
     48  OD2       18.9290   40.3850   44.7040 O.co2 333  ASP333     -0.2456
     49  N          9.5070   41.7160   44.7600 N.3   370  ALA370     -0.1231
     50  CA        10.4560   42.8280   44.6430 C.3   370  ALA370      0.1694
     51  C         11.2660   42.6430   43.3740 C.2   370  ALA370      0.2591
     52  O         11.6250   43.6110   42.6810 O.2   370  ALA370     -0.2718
     53  CB        11.3860   42.9010   45.8890 C.3   370  ALA370      0.0304
     54  N         11.5490   41.3900   43.0680 N.am  371  GLU371     -0.1979
     55  CA        12.4090   41.1260   41.8750 C.3   371  GLU371      0.1602
     56  C         11.7500   41.5540   40.5680 C.2   371  GLU371      0.2287
     57  O         12.4080   41.7640   39.5230 O.2   371  GLU371     -0.2864
     58  CB        12.8550   39.6700   41.8420 C.3   371  GLU371      0.0415
     59  CG        13.7670   39.2150   43.0110 C.3   371  GLU371      0.1163
     60  CD        15.1900   39.9020   42.9900 C.2   371  GLU371      0.3649
     61  OE1       15.4300   40.9020   42.2980 O.co2 371  GLU371     -0.2457
     62  OE2       16.0120   39.4740   43.8000 O.co2 371  GLU371     -0.2457
     63  N         10.0060   44.3400   40.1600 N.3   373  GLY373     -0.1210
     64  CA         9.8690   45.7860   40.1420 C.3   373  GLY373      0.1956
     65  C          9.3480   46.3970   41.4520 C.2   373  GLY373      0.2611
     66  O          8.6040   47.3880   41.3710 O.2   373  GLY373     -0.2717
     67  N          9.7190   45.8290   42.5940 N.am  374  LEU374     -0.1979
     68  CA         9.3420   46.4160   43.9410 C.3   374  LEU374      0.1596
     69  C          7.7880   46.3900   44.0260 C.2   374  LEU374      0.2287
     70  O          7.1630   47.2890   44.6240 O.2   374  LEU374     -0.2864
     71  CB         9.8910   47.8510   44.0880 C.3   374  LEU374      0.0297
     72  CG        11.3580   48.0410   43.5800 C.3   374  LEU374      0.0022
     73  CD1       11.7390   49.5180   43.7820 C.3   374  LEU374      0.0001
     74  CD2       12.2530   47.1130   44.4000 C.3   374  LEU374      0.0001
     75  N         16.8900   44.2590   52.5670 N.3   399  ASP399     -0.1225
     76  CA        17.3170   43.2670   51.5510 C.3   399  ASP399      0.1805
     77  C         18.6720   42.7120   52.0480 C.2   399  ASP399      0.2598
     78  O         18.9690   42.8070   53.2590 O.2   399  ASP399     -0.2718
     79  CB        17.4560   43.8880   50.1640 C.3   399  ASP399      0.1424
     80  CG        17.3160   42.8560   49.0190 C.2   399  ASP399      0.3668
     81  OD1       17.4020   41.6490   49.2850 O.co2 399  ASP399     -0.2456
     82  OD2       17.1390   43.3150   47.8740 O.co2 399  ASP399     -0.2456
     83  N         19.4770   42.1870   51.1230 N.am  400  SER400     -0.1952
     84  CA        20.6530   41.4200   51.5530 C.3   400  SER400      0.1924
     85  C         21.5070   42.1230   52.6150 C.2   400  SER400      0.2314
     86  O         21.8220   43.3150   52.5180 O.2   400  SER400     -0.2863
     87  CB        21.5250   41.0980   50.3730 C.3   400  SER400      0.2116
     88  OG        20.7360   40.6010   49.3460 O.3   400  SER400     -0.2180
     89  N         27.0740   42.0030   50.7680 N.3   403  GLU403     -0.1245
     90  CA        27.4250   41.8660   49.3500 C.3   403  GLU403      0.1567
     91  C         28.9700   41.7890   49.2390 C.2   403  GLU403      0.2260
     92  O         29.5360   41.9240   48.1740 O.2   403  GLU403     -0.2867
     93  CB        26.8550   43.0400   48.5400 C.3   403  GLU403      0.0388
     94  CG        27.4100   44.4320   48.9900 C.3   403  GLU403      0.1160
     95  CD        26.7030   45.6360   48.3300 C.2   403  GLU403      0.3649
     96  OE1       25.6580   45.4860   47.6210 O.co2 403  GLU403     -0.2457
     97  OE2       27.1800   46.7670   48.5390 O.co2 403  GLU403     -0.2457
     98  N         28.2310   49.4550   54.8510 N.3   409  ARG409     -0.1245
     99  CA        27.7530   50.3640   53.8510 C.3   409  ARG409      0.1563
    100  C         26.4280   50.8890   54.4130 C.2   409  ARG409      0.2260
    101  O         25.6190   50.0930   54.8840 O.2   409  ARG409     -0.2867
    102  CB        27.4370   49.6060   52.5600 C.3   409  ARG409      0.0307
    103  CG        26.5860   50.4270   51.5730 C.3   409  ARG409      0.0489
    104  CD        26.3490   49.7220   50.2870 C.3   409  ARG409      0.2205
    105  NE        25.3500   50.4600   49.4800 N.pl3 409  ARG409     -0.0865
    106  CZ        24.8080   49.9750   48.3700 C.cat 409  ARG409      0.5346
    107  NH1       23.9130   50.7110   47.7040 N.pl3 409  ARG409      0.1354
    108  NH2       25.1490   48.7430   47.9440 N.pl3 409  ARG409      0.1354
    109  N         17.7260   53.8740   44.1090 N.3   463  SER463     -0.1202
    110  CA        16.5590   53.0180   44.0170 C.3   463  SER463      0.2020
    111  C         16.9880   51.5930   43.6550 C.2   463  SER463      0.2619
    112  O         18.1750   51.1860   43.8760 O.2   463  SER463     -0.2717
    113  CB        15.5310   53.5710   43.0540 C.3   463  SER463      0.2103
    114  OG        14.3690   52.7380   43.1060 O.3   463  SER463     -0.2182
    115  N         16.0470   50.7770   43.1650 N.am  464  GLY464     -0.1942
    116  CA        16.3840   49.3630   42.9810 C.3   464  GLY464      0.2014
    117  C         16.1050   48.5390   44.2470 C.2   464  GLY464      0.2638
    118  O         16.4920   47.3790   44.3500 O.2   464  GLY464     -0.2714
    119  N         15.3970   49.1310   45.2470 N.am  465  ASN465     -0.1972
    120  CA        15.0330   48.3840   46.4300 C.3   465  ASN465      0.1688
    121  C         13.8140   48.9810   47.1230 C.2   465  ASN465      0.2292
    122  O         13.3350   50.0340   46.6750 O.2   465  ASN465     -0.2864
    123  CB        16.2170   48.2120   47.4030 C.3   465  ASN465      0.1181
    124  CG        16.2960   46.7810   47.9030 C.2   465  ASN465      0.2629
    125  OD1       15.3760   46.2550   48.5650 O.2   465  ASN465     -0.2716
    126  ND2       17.3850   46.1080   47.5080 N.am  465  ASN465     -0.0877
    127  N         19.1790   52.2550   54.8010 N.3   480  ARG480     -0.1245
    128  CA        19.5370   50.8640   54.5300 C.3   480  ARG480      0.1563
    129  C         21.0060   50.6970   54.9810 C.2   480  ARG480      0.2260
    130  O         21.7970   51.6750   54.9500 O.2   480  ARG480     -0.2867
    131  CB        19.4140   50.5620   53.0370 C.3   480  ARG480      0.0307
    132  CG        20.3930   51.3510   52.1510 C.3   480  ARG480      0.0489
    133  CD        20.1350   51.1400   50.6880 C.3   480  ARG480      0.2205
    134  NE        20.1030   49.6990   50.3300 N.pl3 480  ARG480     -0.0865
    135  CZ        20.2130   49.2630   49.0880 C.cat 480  ARG480      0.5346
    136  NH1       20.0430   47.9770   48.8360 N.pl3 480  ARG480      0.1354
    137  NH2       20.3350   50.1350   48.0960 N.pl3 480  ARG480      0.1354
    138  N         24.2990   47.4760   55.0320 N.3   482  ARG482     -0.1245
    139  CA        24.7000   46.0720   54.7990 C.3   482  ARG482      0.1563
    140  C         26.2130   46.0470   54.8300 C.2   482  ARG482      0.2260
    141  O         26.8320   47.0890   54.6810 O.2   482  ARG482     -0.2867
    142  CB        24.2260   45.5590   53.4220 C.3   482  ARG482      0.0307
    143  CG        24.6510   46.4290   52.2230 C.3   482  ARG482      0.0489
    144  CD        24.3900   45.6850   50.8690 C.3   482  ARG482      0.2205
    145  NE        22.9680   45.3060   50.7070 N.pl3 482  ARG482     -0.0865
    146  CZ        22.3020   45.2700   49.5550 C.cat 482  ARG482      0.5346
    147  NH1       21.0170   44.8890   49.6130 N.pl3 482  ARG482      0.1354
    148  NH2       22.8510   45.6270   48.3660 N.pl3 482  ARG482      0.1354
    149  N         27.5990   41.6330   43.0970 N.3   495  TYR495     -0.1241
    150  CA        28.6560   40.6640   43.4500 C.3   495  TYR495      0.1605
    151  C         28.6250   39.5740   42.3600 C.2   495  TYR495      0.2264
    152  O         27.6910   39.4790   41.5930 O.2   495  TYR495     -0.2867
    153  CB        28.4170   40.0920   44.8420 C.3   495  TYR495      0.0534
    154  CG        26.9590   39.7180   45.0580 C.ar  495  TYR495     -0.0201
    155  CD1       26.4980   38.4280   44.8440 C.ar  495  TYR495     -0.0009
    156  CD2       26.0340   40.7000   45.4440 C.ar  495  TYR495     -0.0009
    157  CE1       25.1210   38.0940   45.0220 C.ar  495  TYR495      0.0417
    158  CE2       24.7040   40.3660   45.6250 C.ar  495  TYR495      0.0417
    159  CZ        24.2550   39.0910   45.3850 C.ar  495  TYR495      0.1957
    160  OH        22.9180   38.7720   45.5750 O.3   495  TYR495     -0.2866
    161  N         25.5210   37.2830   41.7050 N.3   498  TYR498     -0.1227
    162  CA        24.2100   38.0360   41.7740 C.3   498  TYR498      0.1736
    163  C         23.1830   37.4490   40.8080 C.2   498  TYR498      0.2595
    164  O         23.3980   37.4050   39.5790 O.2   498  TYR498     -0.2718
    165  CB        24.5530   39.4760   41.4790 C.3   498  TYR498      0.0548
    166  CG        23.4000   40.4340   41.3240 C.ar  498  TYR498     -0.0200
    167  CD1       22.4820   40.5890   42.3600 C.ar  498  TYR498     -0.0009
    168  CD2       23.2440   41.1760   40.1440 C.ar  498  TYR498     -0.0009
    169  CE1       21.3950   41.5300   42.1710 C.ar  498  TYR498      0.0417
    170  CE2       22.2340   42.1180   39.9850 C.ar  498  TYR498      0.0417
    171  CZ        21.3050   42.2530   41.0010 C.ar  498  TYR498      0.1957
    172  OH        20.2700   43.1810   40.7590 O.3   498  TYR498     -0.2866
    173  N         22.0080   37.0920   41.3540 N.am  499  HIS499     -0.1975
    174  CA        20.7860   36.6530   40.5830 C.3   499  HIS499      0.1656
    175  C         21.0620   35.3960   39.6950 C.2   499  HIS499      0.2291
    176  O         20.3210   35.1100   38.7340 O.2   499  HIS499     -0.2864
    177  CB        20.2670   37.7730   39.6810 C.3   499  HIS499      0.0771
    178  CG        19.5040   38.8630   40.4250 C.ar  499  HIS499      0.0820
    179  ND1       18.9130   39.9040   39.7540 N.ar  499  HIS499     -0.2267
    180  CD2       19.2630   39.0780   41.7450 C.ar  499  HIS499      0.1154
    181  CE1       18.2910   40.7020   40.6250 C.ar  499  HIS499      0.1986
    182  NE2       18.4600   40.2090   41.8290 N.ar  499  HIS499     -0.2212
    183  N         18.9630   53.6920   37.5630 N.3   643  LYS643     -0.1231
    184  CA        18.0140   53.6120   38.7160 C.3   643  LYS643      0.1693
    185  C         18.6780   53.3330   40.0480 C.2   643  LYS643      0.2592
    186  O         18.1570   53.7310   41.1190 O.2   643  LYS643     -0.2718
    187  CB        17.0170   52.4810   38.4080 C.3   643  LYS643      0.0285
    188  CG        15.8550   52.3930   39.3850 C.3   643  LYS643      0.0035
    189  CD        14.8860   51.3160   38.8780 C.3   643  LYS643      0.0206
    190  CE        13.5760   51.4260   39.7540 C.3   643  LYS643      0.1093
    191  NZ        12.7220   50.2320   39.5050 N.3   643  LYS643     -0.1314
    192  N         19.8190   52.6110   40.0440 N.am  644  TYR644     -0.1976
    193  CA        20.4350   52.3230   41.3380 C.3   644  TYR644      0.1639
    194  C         21.0360   53.5060   42.0540 C.2   644  TYR644      0.2290
    195  O         21.1540   53.4480   43.2520 O.2   644  TYR644     -0.2864
    196  CB        21.5850   51.3490   41.1430 C.3   644  TYR644      0.0560
    197  CG        21.2100   49.9710   40.6490 C.ar  644  TYR644     -0.0198
    198  CD1       20.0990   49.2840   41.1790 C.ar  644  TYR644     -0.0009
    199  CD2       22.0280   49.2900   39.7320 C.ar  644  TYR644     -0.0009
    200  CE1       19.7830   47.9630   40.7640 C.ar  644  TYR644      0.0417
    201  CE2       21.7120   47.9770   39.2910 C.ar  644  TYR644      0.0417
    202  CZ        20.6290   47.3010   39.8420 C.ar  644  TYR644      0.1957
    203  OH        20.2860   46.0410   39.4120 O.3   644  TYR644     -0.2866
@<TRIPOS>BOND
     1    15    14    2
     2    14    13    1
     3    13    16    1
     4    13    12    1
     5    16    17    1
     6     4     3    2
     7    17    18    1
     8    18    19    1
     9    25    26    2
    10    25    24    1
    11    12     3   am
    12     3     2    1
    13    24    23    1
    14    24    27    1
    15    19    20    2
    16    10     8   ar
    17    10    11   ar
    18     8     6   ar
    19    27    28    1
    20     2     1    1
    21     2     5    1
    22    29    28    2
    23    11     9   ar
    24     6     5    1
    25     6     7   ar
    26    20    21    1
    27    20    22    1
    28    28    30   am
    29     9     7   ar
    30   183   184    1
    31   187   184    1
    32   187   188    1
    33   184   185    1
    34   176   175    2
    35   189   188    1
    36   189   190    1
    37   201   199   ar
    38   201   202   ar
    39   203   202    1
    40   191   190    1
    41    57    56    2
    42   164   163    2
    43   177   178    1
    44   177   174    1
    45   175   174    1
    46   199   197   ar
    47   179   178   ar
    48   179   181   ar
    49   202   200   ar
    50   170   168   ar
    51   170   171   ar
    52   192   185   am
    53   192   193    1
    54   185   186    2
    55    64    63    1
    56    64    65    1
    57   168   166   ar
    58   178   180   ar
    59    56    55    1
    60   174   173    1
    61   181   182   ar
    62   197   196    1
    63   197   198   ar
    64   172   171    1
    65   200   198   ar
    66   163   173   am
    67   163   162    1
    68   171   169   ar
    69   196   193    1
    70   166   165    1
    71   166   167   ar
    72   193   194    1
    73    66    65    2
    74    65    67   am
    75   165   162    1
    76   152   151    2
    77   161   162    1
    78   180   182   ar
    79    58    55    1
    80    58    59    1
    81    55    54    1
    82   194   195    2
    83   169   167   ar
    84    61    60   ar
    85   151   150    1
    86    67    68    1
    87    52    51    2
    88   116   115    1
    89   116   117    1
    90    60    59    1
    91    60    62   ar
    92   113   114    1
    93   113   110    1
    94    54    51   am
    95   149   150    1
    96   115   111   am
    97    51    50    1
    98   150   153    1
    99    72    73    1
   100    72    71    1
   101    72    74    1
   102   111   112    2
   103   111   110    1
   104    68    69    1
   105    68    71    1
   106   110   109    1
   107    69    70    2
   108   117   118    2
   109   117   119   am
   110    50    49    1
   111    50    53    1
   112    48    46   ar
   113   153   154    1
   114   155   157   ar
   115   155   154   ar
   116   157   159   ar
   117   154   156   ar
   118   119   120    1
   119   159   160    1
   120   159   158   ar
   121   156   158   ar
   122    46    45    1
   123    46    47   ar
   124    45    42    1
   125   120   121    1
   126   120   123    1
   127    44    43    2
   128   122   121    2
   129    39    40   ar
   130    39    37   ar
   131    40    38   ar
   132    37    36   ar
   133   123   124    1
   134   126   124   am
   135    43    42    1
   136    96    95   ar
   137    42    41    1
   138   107   106    1
   139    82    80   ar
   140   124   125    2
   141   108   106    1
   142    38    36   ar
   143   137   135    1
   144    92    91    2
   145    36    35    1
   146    95    97   ar
   147    95    94    1
   148   148   146    1
   149   106   105    2
   150    93    94    1
   151    93    90    1
   152   136   135    1
   153    35    32    1
   154    80    81   ar
   155    80    79    1
   156   135   134    2
   157    91    90    1
   158    88    87    1
   159    90    89    1
   160   105   104    1
   161   146   147    1
   162   146   145    2
   163    79    76    1
   164   104   103    1
   165   134   133    1
   166    87    84    1
   167    32    33    1
   168    32    31    1
   169    33    34    2
   170   133   132    1
   171   145   144    1
   172   144   143    1
   173    83    84    1
   174    83    77   am
   175    76    77    1
   176    76    75    1
   177    84    85    1
   178   103   102    1
   179    77    78    2
   180   132   131    1
   181   143   142    1
   182    86    85    2
   183   102    99    1
   184   131   128    1
   185   142   139    1
   186    99   100    1
   187    99    98    1
   188   100   101    2
   189   128   127    1
   190   128   129    1
   191   141   140    2
   192   139   140    1
   193   139   138    1
   194   130   129    2
