@<TRIPOS>MOLECULE
tmp/3bxoB01.pdb
 189 184 0 0 0
SMALL
GASTEIGER

@<TRIPOS>ATOM
      1  N         21.3320    1.7290   51.6990 N.3    13  TYR13      -0.1241
      2  CA        20.9890    2.6570   52.7610 C.3    13  TYR13       0.1605
      3  C         21.8390    3.9000   52.7960 C.2    13  TYR13       0.2264
      4  O         21.3600    4.9790   53.1500 O.2    13  TYR13      -0.2867
      5  CB        20.8150    1.9620   54.1170 C.3    13  TYR13       0.0534
      6  CG        19.5540    1.1100   54.1610 C.ar   13  TYR13      -0.0201
      7  CD1       18.2890    1.6820   54.3860 C.ar   13  TYR13      -0.0009
      8  CD2       19.6080   -0.2680   53.9700 C.ar   13  TYR13      -0.0009
      9  CE1       17.1120    0.9140   54.4150 C.ar   13  TYR13       0.0417
     10  CE2       18.4250   -1.0250   54.0080 C.ar   13  TYR13       0.0417
     11  CZ        17.1980   -0.4340   54.2170 C.ar   13  TYR13       0.1957
     12  OH        16.0680   -1.2080   54.2650 O.3    13  TYR13      -0.2866
     13  N         20.5000    6.0280   50.0010 N.3    16  ARG16      -0.1245
     14  CA        19.1730    6.5030   50.3550 C.3    16  ARG16       0.1563
     15  C         19.2190    7.7110   51.2680 C.2    16  ARG16       0.2260
     16  O         18.2410    8.4570   51.3400 O.2    16  ARG16      -0.2867
     17  CB        18.3770    5.3900   51.0510 C.3    16  ARG16       0.0307
     18  CG        16.8800    5.6630   50.9880 C.3    16  ARG16       0.0489
     19  CD        16.1150    4.8650   52.0490 C.3    16  ARG16       0.2205
     20  NE        14.8490    4.3300   51.5030 N.pl3  16  ARG16      -0.0865
     21  CZ        14.0530    3.4210   52.0770 C.cat  16  ARG16       0.5346
     22  NH1       14.3270    2.8840   53.2720 N.pl3  16  ARG16       0.1354
     23  NH2       12.9570    3.0550   51.4370 N.pl3  16  ARG16       0.1354
     24  N         17.2420    0.0470   64.5230 N.3   105  PHE105     -0.1227
     25  CA        16.5920   -0.2730   63.2570 C.3   105  PHE105      0.1736
     26  C         15.5860   -1.4090   63.2280 C.2   105  PHE105      0.2596
     27  O         15.5770   -2.2980   62.3530 O.2   105  PHE105     -0.2718
     28  CB        17.6780   -0.4600   62.1960 C.3   105  PHE105      0.0547
     29  CG        17.2700   -0.0680   60.8010 C.ar  105  PHE105     -0.0202
     30  CD1       16.1550    0.7030   60.5590 C.ar  105  PHE105     -0.0042
     31  CD2       18.0240   -0.4750   59.7240 C.ar  105  PHE105     -0.0042
     32  CE1       15.7780    1.0660   59.2610 C.ar  105  PHE105     -0.0003
     33  CE2       17.6830   -0.1000   58.4200 C.ar  105  PHE105     -0.0003
     34  CZ        16.5580    0.6670   58.1760 C.ar  105  PHE105     -0.0000
     35  N         14.7330   -1.3650   64.2350 N.am  106  SER106     -0.1952
     36  CA        13.6620   -2.3150   64.3600 C.3   106  SER106      0.1924
     37  C         13.9430   -3.7970   64.4910 C.2   106  SER106      0.2314
     38  O         13.0450   -4.6080   64.2910 O.2   106  SER106     -0.2863
     39  CB        12.7340   -2.0550   63.1660 C.3   106  SER106      0.2116
     40  OG        12.4130   -0.6680   63.1560 O.3   106  SER106     -0.2180
     41  N         11.8260   -8.7720   64.8130 N.3   110  TYR110     -0.1241
     42  CA        11.9870  -10.1390   64.3250 C.3   110  TYR110      0.1605
     43  C         11.6700  -11.2040   65.3810 C.2   110  TYR110      0.2264
     44  O         11.7660  -12.4150   65.1480 O.2   110  TYR110     -0.2867
     45  CB        13.3740  -10.2810   63.7060 C.3   110  TYR110      0.0534
     46  CG        13.4360   -9.4900   62.4290 C.ar  110  TYR110     -0.0201
     47  CD1       12.8670   -9.9970   61.2550 C.ar  110  TYR110     -0.0009
     48  CD2       14.0510   -8.2440   62.3770 C.ar  110  TYR110     -0.0009
     49  CE1       12.9100   -9.2860   60.0660 C.ar  110  TYR110      0.0417
     50  CE2       14.0920   -7.5130   61.1830 C.ar  110  TYR110      0.0417
     51  CZ        13.5360   -8.0500   60.0300 C.ar  110  TYR110      0.1957
     52  OH        13.5710   -7.3710   58.8350 O.3   110  TYR110     -0.2866
     53  N          9.8440   -1.6580   65.8080 N.3   139  TRP139     -0.1227
     54  CA         9.2420   -1.7170   64.4880 C.3   139  TRP139      0.1737
     55  C          7.9160   -0.9260   64.7000 C.2   139  TRP139      0.2595
     56  O          7.5590   -0.5090   65.8200 O.2   139  TRP139     -0.2718
     57  CB         8.9520   -3.1590   64.1380 C.3   139  TRP139      0.0564
     58  CG         8.1880   -3.3120   62.8470 C.ar  139  TRP139      0.0003
     59  CD1        7.0070   -3.9780   62.6730 C.ar  139  TRP139      0.0946
     60  CD2        8.5720   -2.8150   61.5560 C.ar  139  TRP139      0.0152
     61  NE1        6.6230   -3.9330   61.3400 N.ar  139  TRP139     -0.2442
     62  CE2        7.5770   -3.2290   60.6380 C.ar  139  TRP139      0.0810
     63  CE3        9.6650   -2.0620   61.0870 C.ar  139  TRP139      0.0012
     64  CZ2        7.6330   -2.8950   59.2870 C.ar  139  TRP139      0.0191
     65  CZ3        9.7300   -1.7500   59.7400 C.ar  139  TRP139      0.0001
     66  CH2        8.7120   -2.1640   58.8460 C.ar  139  TRP139      0.0015
     67  N          7.1560   -0.6960   63.6370 N.am  140  TRP140     -0.1976
     68  CA         5.8780    0.0060   63.7510 C.3   140  TRP140      0.1640
     69  C          4.9240   -0.7920   64.6600 C.2   140  TRP140      0.2290
     70  O          5.1340   -1.9900   64.9390 O.2   140  TRP140     -0.2864
     71  CB         5.2490    0.0500   62.3450 C.3   140  TRP140      0.0576
     72  CG         6.0460    0.9000   61.3890 C.ar  140  TRP140      0.0006
     73  CD1        6.8950    0.4700   60.4090 C.ar  140  TRP140      0.0946
     74  CD2        6.0430    2.3320   61.3090 C.ar  140  TRP140      0.0152
     75  NE1        7.4360    1.5360   59.7450 N.ar  140  TRP140     -0.2442
     76  CE2        6.9460    2.6930   60.2860 C.ar  140  TRP140      0.0810
     77  CE3        5.3930    3.3450   62.0410 C.ar  140  TRP140      0.0012
     78  CZ2        7.1990    4.0200   59.9410 C.ar  140  TRP140      0.0191
     79  CZ3        5.6470    4.6560   61.7090 C.ar  140  TRP140      0.0001
     80  CH2        6.5300    4.9860   60.6520 C.ar  140  TRP140      0.0015
     81  N          0.0430    2.0230   63.8730 N.3   144  THR144     -0.1203
     82  CA         0.6610    3.0190   62.9880 C.3   144  THR144      0.1994
     83  C          1.1600    2.3480   61.7260 C.2   144  THR144      0.2618
     84  O          1.8060    2.9770   60.8750 O.2   144  THR144     -0.2717
     85  CB         1.8570    3.6730   63.7340 C.3   144  THR144      0.1784
     86  OG1        2.6360    2.6390   64.3520 O.3   144  THR144     -0.2211
     87  CG2        1.4090    4.6130   64.8390 C.3   144  THR144      0.0376
     88  N          0.8440    1.0600   61.6080 N.am  145  PHE145     -0.1961
     89  CA         1.3060    0.3330   60.4330 C.3   145  PHE145      0.1771
     90  C          0.5230    0.8170   59.2450 C.2   145  PHE145      0.2619
     91  O         -0.6790    1.0580   59.3630 O.2   145  PHE145     -0.2715
     92  CB         1.1440   -1.1900   60.5540 C.3   145  PHE145      0.0574
     93  CG         1.5470   -1.9180   59.2900 C.ar  145  PHE145     -0.0200
     94  CD1        2.8380   -1.8000   58.7840 C.ar  145  PHE145     -0.0042
     95  CD2        0.6310   -2.6950   58.5890 C.ar  145  PHE145     -0.0042
     96  CE1        3.2060   -2.4740   57.6130 C.ar  145  PHE145     -0.0003
     97  CE2        0.9740   -3.3600   57.4170 C.ar  145  PHE145     -0.0003
     98  CZ         2.2620   -3.2500   56.9200 C.ar  145  PHE145     -0.0000
     99  N          1.2010    0.9690   58.1150 N.am  146  ALA146     -0.1977
    100  CA         0.5310    1.4150   56.8840 C.3   146  ALA146      0.1597
    101  C          0.5610    0.2130   55.9250 C.2   146  ALA146      0.2287
    102  O          1.5530   -0.0910   55.2270 O.2   146  ALA146     -0.2864
    103  CB         1.2140    2.5970   56.2880 C.3   146  ALA146      0.0319
    104  N          1.7490   -0.6540   51.9190 N.3   149  TRP149     -0.1241
    105  CA         2.8150    0.2900   51.5860 C.3   149  TRP149      0.1605
    106  C          3.8160   -0.1660   50.5340 C.2   149  TRP149      0.2264
    107  O          4.3400   -1.2860   50.5940 O.2   149  TRP149     -0.2867
    108  CB         3.6070    0.5840   52.8770 C.3   149  TRP149      0.0550
    109  CG         4.6420    1.6770   52.7330 C.ar  149  TRP149      0.0003
    110  CD1        5.9200    1.5730   52.2310 C.ar  149  TRP149      0.0946
    111  CD2        4.4560    3.0540   53.0730 C.ar  149  TRP149      0.0152
    112  NE1        6.5310    2.8130   52.2370 N.ar  149  TRP149     -0.2442
    113  CE2        5.6620    3.7310   52.7740 C.ar  149  TRP149      0.0810
    114  CE3        3.3840    3.7820   53.6120 C.ar  149  TRP149      0.0012
    115  CZ2        5.8170    5.0990   52.9930 C.ar  149  TRP149      0.0191
    116  CZ3        3.5400    5.1410   53.8310 C.ar  149  TRP149      0.0001
    117  CH2        4.7480    5.7870   53.5310 C.ar  149  TRP149      0.0015
    118  N          7.4660    0.8630   48.6540 N.3   151  SER151     -0.1217
    119  CA         8.5810    1.7830   48.7120 C.3   151  SER151      0.1889
    120  C          9.3680    1.5200   47.4110 C.2   151  SER151      0.2288
    121  O          9.5920    0.3660   47.0580 O.2   151  SER151     -0.2866
    122  CB         9.4260    1.4620   49.9710 C.3   151  SER151      0.2089
    123  OG        10.3340    2.5040   50.2860 O.3   151  SER151     -0.2183
    124  N         15.4500   -0.5630   44.3990 N.3   164  ARG164     -0.1245
    125  CA        14.8710   -1.3970   45.4490 C.3   164  ARG164      0.1563
    126  C         13.4000   -1.1110   45.5860 C.2   164  ARG164      0.2260
    127  O         12.9920    0.0450   45.6610 O.2   164  ARG164     -0.2867
    128  CB        15.5720   -1.1540   46.8160 C.3   164  ARG164      0.0307
    129  CG        14.9280   -1.8460   48.0210 C.3   164  ARG164      0.0489
    130  CD        15.4490   -1.2600   49.3460 C.3   164  ARG164      0.2205
    131  NE        14.8670   -1.8900   50.5130 N.pl3 164  ARG164     -0.0865
    132  CZ        13.7200   -1.5310   51.1020 C.cat 164  ARG164      0.5346
    133  NH1       12.9830   -0.5090   50.6410 N.pl3 164  ARG164      0.1354
    134  NH2       13.3070   -2.2110   52.1490 N.pl3 164  ARG164      0.1354
    135  N          9.9440   -2.4750   47.8500 N.3   166  SER166     -0.1217
    136  CA         9.4170   -3.3250   48.9160 C.3   166  SER166      0.1889
    137  C          7.9100   -3.1010   48.8820 C.2   166  SER166      0.2288
    138  O          7.4270   -2.0280   48.4880 O.2   166  SER166     -0.2866
    139  CB         9.9370   -3.0200   50.3360 C.3   166  SER166      0.2089
    140  OG         9.3350   -1.8060   50.8260 O.3   166  SER166     -0.2183
    141  N          4.6190   -4.0290   51.5540 N.3   168  SER168     -0.1217
    142  CA         4.3210   -4.5700   52.8800 C.3   168  SER168      0.1889
    143  C          2.8390   -4.8160   53.0910 C.2   168  SER168      0.2288
    144  O          2.0400   -3.9500   52.7860 O.2   168  SER168     -0.2866
    145  CB         4.6960   -3.5370   53.9590 C.3   168  SER168      0.2089
    146  OG         6.1020   -3.3050   54.0040 O.3   168  SER168     -0.2183
    147  N          7.0180   -8.1910   54.5920 N.3   177  MET177     -0.1245
    148  CA         7.5540   -7.2680   53.6000 C.3   177  MET177      0.1570
    149  C          8.4020   -8.0700   52.5910 C.2   177  MET177      0.2261
    150  O          9.2770   -8.8520   52.9730 O.2   177  MET177     -0.2867
    151  CB         8.4510   -6.2500   54.3200 C.3   177  MET177      0.0387
    152  CG         9.0820   -5.2870   53.3330 C.3   177  MET177      0.0595
    153  SD        10.3610   -4.2110   54.0320 S.3   177  MET177     -0.1393
    154  CE         9.4220   -3.0880   55.0500 C.3   177  MET177      0.0692
    155  N         10.4670  -10.5720   54.4920 N.3   197  HIS197     -0.1241
    156  CA        10.6230  -10.3560   55.9470 C.3   197  HIS197      0.1621
    157  C          9.3100  -10.3230   56.7260 C.2   197  HIS197      0.2264
    158  O          8.3510   -9.6940   56.2990 O.2   197  HIS197     -0.2867
    159  CB        11.2760   -8.9380   56.1840 C.3   197  HIS197      0.0745
    160  CG        12.5600   -8.7790   55.4420 C.ar  197  HIS197      0.0817
    161  ND1       13.7260   -9.3980   55.8420 N.ar  197  HIS197     -0.2268
    162  CD2       12.8500   -8.1070   54.3030 C.ar  197  HIS197      0.1154
    163  CE1       14.6860   -9.0960   54.9840 C.ar  197  HIS197      0.1986
    164  NE2       14.1830   -8.3140   54.0450 N.ar  197  HIS197     -0.2212
    165  N          7.9600   -9.0350   60.1870 N.3   199  ILE199     -0.1245
    166  CA         8.3000   -8.2110   61.3330 C.3   199  ILE199      0.1561
    167  C          7.0690   -8.0390   62.2170 C.2   199  ILE199      0.2260
    168  O          6.0410   -7.5110   61.7910 O.2   199  ILE199     -0.2867
    169  CB         8.8260   -6.7980   60.8730 C.3   199  ILE199      0.0252
    170  CG1        9.7350   -6.9320   59.6400 C.3   199  ILE199      0.0019
    171  CG2        9.6540   -6.0890   61.9640 C.3   199  ILE199      0.0019
    172  CD1        9.3410   -6.0990   58.4430 C.3   199  ILE199      0.0001
    173  N         13.8960    6.2900   62.4430 N.3   226  SER226     -0.1217
    174  CA        13.0840    5.8150   61.3100 C.3   226  SER226      0.1889
    175  C         11.6340    6.2270   61.3690 C.2   226  SER226      0.2288
    176  O         10.8060    5.7760   60.5830 O.2   226  SER226     -0.2866
    177  CB        13.1750    4.2950   61.2570 C.3   226  SER226      0.2089
    178  OG        14.5260    3.9380   61.4360 O.3   226  SER226     -0.2183
    179  N          9.8340    5.5570   63.8220 N.3   228  ARG228     -0.1245
    180  CA         9.1010    4.5370   64.5850 C.3   228  ARG228      0.1563
    181  C          9.2250    4.8080   66.0910 C.2   228  ARG228      0.2260
    182  O          8.6870    4.0760   66.9300 O.2   228  ARG228     -0.2867
    183  CB         9.6390    3.1460   64.2280 C.3   228  ARG228      0.0307
    184  CG         9.6510    2.9390   62.7420 C.3   228  ARG228      0.0489
    185  CD        10.5840    1.7900   62.2980 C.3   228  ARG228      0.2205
    186  NE        10.4700    1.6800   60.8400 N.pl3 228  ARG228     -0.0865
    187  CZ        11.3810    1.1550   60.0170 C.cat 228  ARG228      0.5346
    188  NH1       12.4950    0.6490   60.5060 N.pl3 228  ARG228      0.1354
    189  NH2       11.1780    1.1110   58.7160 N.pl3 228  ARG228      0.1354
@<TRIPOS>BOND
     1   124   125    1
     2   125   126    1
     3   125   128    1
     4   126   127    2
     5   128   129    1
     6   121   120    2
     7   120   119    1
     8   135   136    1
     9   129   130    1
    10   138   137    2
    11   118   119    1
    12   119   122    1
    13   137   136    1
    14   136   139    1
    15   130   131    1
    16   122   123    1
    17    13    14    1
    18   139   140    1
    19    14    17    1
    20    14    15    1
    21   131   132    2
    22   106   107    2
    23   106   105    1
    24   133   132    1
    25    18    17    1
    26    18    19    1
    27   132   134    1
    28    15    16    2
    29    23    21    1
    30    20    19    1
    31    20    21    2
    32   141   142    1
    33   105   104    1
    34   105   108    1
    35     1     2    1
    36    21    22    1
    37   110   112   ar
    38   110   109   ar
    39   112   113   ar
    40   149   150    2
    41   149   148    1
    42   109   108    1
    43   109   111   ar
    44     2     3    1
    45     2     5    1
    46   113   115   ar
    47   113   111   ar
    48   144   143    2
    49     3     4    2
    50   142   143    1
    51   142   145    1
    52   115   117   ar
    53   111   114   ar
    54   152   153    1
    55   152   151    1
    56   117   116   ar
    57   148   151    1
    58   148   147    1
    59   114   116   ar
    60   145   146    1
    61     8    10   ar
    62     8     6   ar
    63    10    11   ar
    64   153   154    1
    65   164   162   ar
    66   164   163   ar
    67     5     6    1
    68     6     7   ar
    69    11    12    1
    70    11     9   ar
    71   162   160   ar
    72     7     9   ar
    73   155   156    1
    74   163   161   ar
    75   102   101    2
    76   160   161   ar
    77   160   159    1
    78   101   100    1
    79   156   159    1
    80   156   157    1
    81   103   100    1
    82   158   157    2
    83   100    99    1
    84    98    97   ar
    85    98    96   ar
    86    97    95   ar
    87    96    94   ar
    88    99    90   am
    89    34    33   ar
    90    34    32   ar
    91    33    31   ar
    92   172   170    1
    93    95    93   ar
    94   189   187    1
    95    94    93   ar
    96    52    51    1
    97    66    64   ar
    98    66    65   ar
    99    90    91    2
   100    90    89    1
   101    32    30   ar
   102    64    62   ar
   103    93    92    1
   104   170   169    1
   105    31    29   ar
   106    65    63   ar
   107    75    76   ar
   108    75    73   ar
   109    78    76   ar
   110    78    80   ar
   111   187   188    1
   112   187   186    2
   113    51    49   ar
   114    51    50   ar
   115    49    47   ar
   116   165   166    1
   117    76    74   ar
   118    73    72   ar
   119    89    92    1
   120    89    88    1
   121    30    29   ar
   122   176   175    2
   123    62    61   ar
   124    62    60   ar
   125    80    79   ar
   126    29    28    1
   127   186   185    1
   128   169   166    1
   129   169   171    1
   130    84    83    2
   131    63    60   ar
   132    50    48   ar
   133    47    46   ar
   134   177   174    1
   135   177   178    1
   136    74    72   ar
   137    74    77   ar
   138   174   175    1
   139   174   173    1
   140   166   167    1
   141    61    59   ar
   142    72    71    1
   143    60    58   ar
   144    88    83   am
   145    79    77   ar
   146    83    82    1
   147   168   167    2
   148    28    25    1
   149   185   184    1
   150    71    68    1
   151    27    26    2
   152    48    46   ar
   153    46    45    1
   154    59    58   ar
   155   184   183    1
   156    58    57    1
   157    82    85    1
   158    82    81    1
   159    40    39    1
   160    39    36    1
   161    26    25    1
   162    26    35   am
   163    25    24    1
   164    67    68    1
   165    67    55   am
   166    45    42    1
   167    85    86    1
   168    85    87    1
   169    68    69    1
   170   179   180    1
   171    57    54    1
   172   183   180    1
   173    35    36    1
   174    38    37    2
   175    42    41    1
   176    42    43    1
   177    36    37    1
   178    54    55    1
   179    54    53    1
   180   180   181    1
   181    69    70    2
   182    55    56    2
   183    44    43    2
   184   181   182    2
