@<TRIPOS>MOLECULE
tmp/3bxoB00.pdb
 173 168 0 0 0
SMALL
GASTEIGER

@<TRIPOS>ATOM
      1  N         23.9310    6.7980   59.4820 N.3    20  TYR20      -0.1241
      2  CA        24.3040    5.9800   60.6420 C.3    20  TYR20       0.1605
      3  C         25.2050    6.7550   61.6170 C.2    20  TYR20       0.2264
      4  O         25.0930    6.6100   62.8300 O.2    20  TYR20      -0.2867
      5  CB        24.9130    4.6190   60.2020 C.3    20  TYR20       0.0534
      6  CG        23.9820    3.4830   59.7080 C.ar   20  TYR20      -0.0201
      7  CD1       23.5910    3.3590   58.3690 C.ar   20  TYR20      -0.0009
      8  CD2       23.5130    2.4950   60.5740 C.ar   20  TYR20      -0.0009
      9  CE1       22.7390    2.2870   57.9180 C.ar   20  TYR20       0.0417
     10  CE2       22.6700    1.4450   60.1490 C.ar   20  TYR20       0.0417
     11  CZ        22.2900    1.3310   58.8120 C.ar   20  TYR20       0.1957
     12  OH        21.4830    0.2720   58.3880 O.3    20  TYR20      -0.2866
     13  N         25.7400   -3.1980   71.2020 N.3    43  ASP43      -0.1239
     14  CA        24.8210   -2.9310   70.1080 C.3    43  ASP43       0.1674
     15  C         24.2040   -4.2850   69.7390 C.2    43  ASP43       0.2266
     16  O         24.8990   -5.1100   69.1480 O.2    43  ASP43      -0.2867
     17  CB        25.6360   -2.4080   68.9410 C.3    43  ASP43       0.1410
     18  CG        24.7630   -2.0850   67.7390 C.2    43  ASP43       0.3668
     19  OD1       23.5390   -2.3280   67.7690 O.co2  43  ASP43      -0.2456
     20  OD2       25.3420   -1.5150   66.8040 O.co2  43  ASP43      -0.2456
     21  N         22.0670   -6.9370   67.7050 N.3    45  ALA45      -0.1231
     22  CA        21.6500   -7.2670   66.3420 C.3    45  ALA45       0.1694
     23  C         22.2770   -6.1470   65.5410 C.2    45  ALA45       0.2592
     24  O         21.5930   -5.4040   64.8290 O.2    45  ALA45      -0.2718
     25  CB        20.1450   -7.2490   66.1760 C.3    45  ALA45       0.0304
     26  N         23.5980   -6.0490   65.6680 N.am   46  CYS46      -0.1956
     27  CA        24.3510   -4.9910   65.0000 C.3    46  CYS46       0.1843
     28  C         24.4220   -4.9840   63.5120 C.2    46  CYS46       0.2626
     29  O         24.9740   -4.0520   62.9600 O.2    46  CYS46      -0.2714
     30  CB        25.7950   -4.9300   65.5160 C.3    46  CYS46       0.0997
     31  SG        26.6440   -6.5360   65.3580 S.3    46  CYS46      -0.0797
     32  N         23.9240   -6.0140   62.8560 N.am   47  GLY47      -0.1940
     33  CA        24.0130   -6.0150   61.4000 C.3    47  GLY47       0.2014
     34  C         25.4680   -6.0100   60.9100 C.2    47  GLY47       0.2639
     35  O         26.3100   -6.7380   61.3960 O.2    47  GLY47      -0.2714
     36  N         25.7800   -5.1850   59.9260 N.am   48  THR48      -0.1950
     37  CA        27.1390   -5.1610   59.4120 C.3    48  THR48       0.1897
     38  C         28.0100   -4.2050   60.2010 C.2    48  THR48       0.2313
     39  O         29.1040   -3.8540   59.7610 O.2    48  THR48      -0.2863
     40  CB        27.1930   -4.7330   57.9460 C.3    48  THR48       0.1794
     41  OG1       26.8510   -3.3440   57.8810 O.3    48  THR48      -0.2208
     42  CG2       26.1960   -5.5220   57.1290 C.3    48  THR48       0.0378
     43  N         26.5340    1.3570   62.8120 N.3    51  HIS51      -0.1241
     44  CA        26.3730    2.1450   64.0250 C.3    51  HIS51       0.1621
     45  C         27.5030    1.7910   65.0040 C.2    51  HIS51       0.2264
     46  O         28.0060    2.6640   65.7160 O.2    51  HIS51      -0.2867
     47  CB        25.0320    1.7540   64.8140 C.3    51  HIS51       0.0745
     48  CG        23.7500    2.2260   64.1900 C.ar   51  HIS51       0.0817
     49  ND1       22.7730    1.3590   63.7430 N.ar   51  HIS51      -0.2268
     50  CD2       23.2820    3.4750   63.9470 C.ar   51  HIS51       0.1154
     51  CE1       21.7650    2.0500   63.2390 C.ar   51  HIS51       0.1986
     52  NE2       22.0520    3.3360   63.3440 N.ar   51  HIS51      -0.2212
     53  N         26.3320   -7.8070   69.0080 N.3    65  LEU65      -0.1231
     54  CA        25.7760   -9.1500   69.0780 C.3    65  LEU65       0.1693
     55  C         24.9930   -9.3880   67.7940 C.2    65  LEU65       0.2592
     56  O         24.2150   -8.5390   67.3410 O.2    65  LEU65      -0.2718
     57  CB        24.7010   -9.1910   70.1610 C.3    65  LEU65       0.0284
     58  CG        24.0140  -10.5610   70.1580 C.3    65  LEU65       0.0019
     59  CD1       25.0750  -11.6430   70.5510 C.3    65  LEU65       0.0001
     60  CD2       22.8820  -10.5000   71.1270 C.3    65  LEU65       0.0001
     61  N         25.1730  -10.5470   67.1870 N.am   66  GLU66      -0.1966
     62  CA        24.3820  -10.8090   65.9730 C.3    66  GLU66       0.1733
     63  C         24.0350  -12.2820   65.9140 C.2    66  GLU66       0.2616
     64  O         24.8400  -13.0940   66.3440 O.2    66  GLU66      -0.2715
     65  CB        25.0590  -10.4090   64.6620 C.3    66  GLU66       0.0429
     66  CG        24.4770   -9.1620   63.9890 C.3    66  GLU66       0.1163
     67  CD        23.1140   -9.3630   63.3800 C.2    66  GLU66       0.3649
     68  OE1       22.6840  -10.5090   63.1190 O.co2  66  GLU66      -0.2457
     69  OE2       22.4660   -8.3430   63.1480 O.co2  66  GLU66      -0.2457
     70  N         22.8510  -12.6080   65.3970 N.am   67  LEU67      -0.1963
     71  CA        22.4410  -13.9970   65.2810 C.3    67  LEU67       0.1728
     72  C         22.9710  -14.5200   63.9350 C.2    67  LEU67       0.2616
     73  O         23.1940  -15.7160   63.8000 O.2    67  LEU67      -0.2715
     74  CB        20.9060  -14.0900   65.3240 C.3    67  LEU67       0.0311
     75  CG        20.2100  -15.4500   65.1890 C.3    67  LEU67       0.0022
     76  CD1       20.6560  -16.4730   66.2240 C.3    67  LEU67       0.0001
     77  CD2       18.6850  -15.3550   65.0750 C.3    67  LEU67       0.0001
     78  N         23.1530  -13.6290   62.9530 N.am   68  SER68      -0.1950
     79  CA        23.6230  -13.9430   61.6050 C.3    68  SER68       0.1924
     80  C         25.1190  -14.0420   61.3730 C.2    68  SER68       0.2314
     81  O         25.7960  -13.0220   61.4940 O.2    68  SER68      -0.2863
     82  CB        23.0780  -12.8950   60.6170 C.3    68  SER68       0.2116
     83  OG        23.6650  -12.9800   59.3180 O.3    68  SER68      -0.2180
     84  N         26.0410  -11.5740   58.6960 N.3    71  MET71      -0.1245
     85  CA        26.1070  -10.2010   59.1960 C.3    71  MET71       0.1570
     86  C         27.4440  -10.0530   59.9090 C.2    71  MET71       0.2261
     87  O         28.1830   -9.0850   59.7190 O.2    71  MET71      -0.2867
     88  CB        24.9640   -9.9250   60.1820 C.3    71  MET71       0.0387
     89  CG        23.6500   -9.6170   59.4670 C.3    71  MET71       0.0595
     90  SD        23.9810   -8.3990   58.1240 S.3    71  MET71      -0.1393
     91  CE        23.1780   -6.8560   58.6980 C.3    71  MET71       0.0692
     92  N         24.9910  -14.9520   68.3180 N.3    87  GLY87      -0.1210
     93  CA        24.0110  -15.4130   69.2900 C.3    87  GLY87       0.1956
     94  C         22.6930  -14.6800   69.1450 C.2    87  GLY87       0.2612
     95  O         22.5650  -13.8180   68.2660 O.2    87  GLY87      -0.2717
     96  N         21.7600  -15.0530   70.0290 N.am   88  ASP88      -0.1959
     97  CA        20.3760  -14.5790   70.1320 C.3    88  ASP88       0.1840
     98  C         20.0610  -13.5370   71.1940 C.2    88  ASP88       0.2622
     99  O         20.2910  -13.7490   72.4040 O.2    88  ASP88      -0.2715
    100  CB        19.5140  -15.7990   70.4760 C.3    88  ASP88       0.1450
    101  CG        18.0700  -15.6560   70.0440 C.2    88  ASP88       0.3671
    102  OD1       17.4290  -14.5920   70.1520 O.co2  88  ASP88      -0.2456
    103  OD2       17.5370  -16.6930   69.6420 O.co2  88  ASP88      -0.2456
    104  N         19.5170  -12.4100   70.7450 N.am   89  MET89      -0.1963
    105  CA        19.1920  -11.3660   71.7240 C.3    89  MET89       0.1736
    106  C         18.1680  -11.8850   72.7430 C.2    89  MET89       0.2616
    107  O         17.9500  -11.2720   73.7840 O.2    89  MET89      -0.2715
    108  CB        18.5550  -10.1870   71.0010 C.3    89  MET89       0.0427
    109  CG        17.1260  -10.4580   70.5210 C.3    89  MET89       0.0599
    110  SD        16.4210   -9.0020   69.6560 S.3    89  MET89      -0.1393
    111  CE        16.9180   -9.0970   67.9470 C.3    89  MET89       0.0692
    112  N         17.5270  -13.0200   72.4610 N.am   90  ARG90      -0.1977
    113  CA        16.5450  -13.4990   73.4240 C.3    90  ARG90       0.1597
    114  C         17.1980  -14.0230   74.6840 C.2    90  ARG90       0.2287
    115  O         16.6720  -13.8400   75.7990 O.2    90  ARG90      -0.2864
    116  CB        15.6770  -14.6190   72.8060 C.3    90  ARG90       0.0334
    117  CG        14.6790  -14.2310   71.6990 C.3    90  ARG90       0.0492
    118  CD        14.3210  -15.4520   70.8260 C.3    90  ARG90       0.2205
    119  NE        13.5070  -15.1630   69.6410 N.pl3  90  ARG90      -0.0865
    120  CZ        13.7330  -15.5350   68.3720 C.cat  90  ARG90       0.5346
    121  NH1       14.7920  -16.2490   67.9870 N.pl3  90  ARG90       0.1354
    122  NH2       12.8580  -15.1760   67.4360 N.pl3  90  ARG90       0.1354
    123  N         19.1980   -1.1720   67.4440 N.3   104  MET104     -0.1230
    124  CA        18.6530   -0.2840   66.4160 C.3   104  MET104      0.1702
    125  C         18.0000   -0.8340   65.1820 C.2   104  MET104      0.2592
    126  O         18.2150   -1.9910   64.8240 O.2   104  MET104     -0.2718
    127  CB        19.8420    0.4770   65.8250 C.3   104  MET104      0.0401
    128  CG        20.7900    1.0420   66.8690 C.3   104  MET104      0.0596
    129  SD        19.9090    2.2940   67.8570 S.3   104  MET104     -0.1393
    130  CE        19.5140    3.4790   66.6230 C.3   104  MET104      0.0692
    131  N         17.2420    0.0470   64.5230 N.am  105  PHE105     -0.1962
    132  CA        16.5920   -0.2730   63.2570 C.3   105  PHE105      0.1771
    133  C         15.5860   -1.4090   63.2280 C.2   105  PHE105      0.2620
    134  O         15.5770   -2.2980   62.3530 O.2   105  PHE105     -0.2715
    135  CB        17.6780   -0.4600   62.1960 C.3   105  PHE105      0.0574
    136  CG        17.2700   -0.0680   60.8010 C.ar  105  PHE105     -0.0200
    137  CD1       16.1550    0.7030   60.5590 C.ar  105  PHE105     -0.0042
    138  CD2       18.0240   -0.4750   59.7240 C.ar  105  PHE105     -0.0042
    139  CE1       15.7780    1.0660   59.2610 C.ar  105  PHE105     -0.0003
    140  CE2       17.6830   -0.1000   58.4200 C.ar  105  PHE105     -0.0003
    141  CZ        16.5580    0.6670   58.1760 C.ar  105  PHE105     -0.0000
    142  N         14.7330   -1.3650   64.2350 N.am  106  SER106     -0.1936
    143  CA        13.6620   -2.3150   64.3600 C.3   106  SER106      0.2055
    144  C         13.9430   -3.7970   64.4910 C.2   106  SER106      0.2643
    145  O         13.0450   -4.6080   64.2910 O.2   106  SER106     -0.2714
    146  CB        12.7340   -2.0550   63.1660 C.3   106  SER106      0.2130
    147  OG        12.4130   -0.6680   63.1560 O.3   106  SER106     -0.2179
    148  N         15.1750   -4.1280   64.8560 N.am  107  SER107     -0.1949
    149  CA        15.6400   -5.4860   65.0680 C.3   107  SER107      0.1924
    150  C         14.7450   -6.3460   65.9630 C.2   107  SER107      0.2314
    151  O         14.4930   -7.5000   65.6910 O.2   107  SER107     -0.2863
    152  CB        17.0480   -5.4070   65.6840 C.3   107  SER107      0.2116
    153  OG        17.9850   -4.9620   64.7200 O.3   107  SER107     -0.2180
    154  N         11.8260   -8.7720   64.8130 N.3   110  TYR110     -0.1227
    155  CA        11.9870  -10.1390   64.3250 C.3   110  TYR110      0.1736
    156  C         11.6700  -11.2040   65.3810 C.2   110  TYR110      0.2595
    157  O         11.7660  -12.4150   65.1480 O.2   110  TYR110     -0.2718
    158  CB        13.3740  -10.2810   63.7060 C.3   110  TYR110      0.0548
    159  CG        13.4360   -9.4900   62.4290 C.ar  110  TYR110     -0.0200
    160  CD1       12.8670   -9.9970   61.2550 C.ar  110  TYR110     -0.0009
    161  CD2       14.0510   -8.2440   62.3770 C.ar  110  TYR110     -0.0009
    162  CE1       12.9100   -9.2860   60.0660 C.ar  110  TYR110      0.0417
    163  CE2       14.0920   -7.5130   61.1830 C.ar  110  TYR110      0.0417
    164  CZ        13.5360   -8.0500   60.0300 C.ar  110  TYR110      0.1957
    165  OH        13.5710   -7.3710   58.8350 O.3   110  TYR110     -0.2866
    166  N         11.2970  -10.7310   66.5630 N.am  111  LEU111     -0.1980
    167  CA        10.9690  -11.6270   67.6610 C.3   111  LEU111      0.1596
    168  C          9.5060  -11.8760   67.3560 C.2   111  LEU111      0.2287
    169  O          8.7710  -11.0010   66.9090 O.2   111  LEU111     -0.2864
    170  CB        11.1710  -10.9350   69.0130 C.3   111  LEU111      0.0297
    171  CG        12.5990  -10.4920   69.3100 C.3   111  LEU111      0.0022
    172  CD1       12.6630  -10.1310   70.7480 C.3   111  LEU111      0.0001
    173  CD2       13.5220  -11.7040   69.0960 C.3   111  LEU111      0.0001
@<TRIPOS>BOND
     1    42    40    1
     2    41    40    1
     3     9     7   ar
     4     9    11   ar
     5    40    37    1
     6    90    91    1
     7    90    89    1
     8   141   140   ar
     9   141   139   ar
    10     7     6   ar
    11    12    11    1
    12   140   138   ar
    13    84    85    1
    14    11    10   ar
    15   165   164    1
    16    85    86    1
    17    85    88    1
    18   139   137   ar
    19    83    82    1
    20    37    36    1
    21    37    38    1
    22    89    88    1
    23     1     2    1
    24     6     5    1
    25     6     8   ar
    26    87    86    2
    27   138   136   ar
    28    39    38    2
    29    36    34   am
    30   164   162   ar
    31   164   163   ar
    32   162   160   ar
    33    10     8   ar
    34     5     2    1
    35   137   136   ar
    36    82    79    1
    37     2     3    1
    38   136   135    1
    39    34    35    2
    40    34    33    1
    41   163   161   ar
    42   160   159   ar
    43    80    81    2
    44    80    79    1
    45    33    32    1
    46    79    78    1
    47     3     4    2
    48   135   132    1
    49   134   133    2
    50   161   159   ar
    51   159   158    1
    52    43    44    1
    53    32    28   am
    54    78    72   am
    55    29    28    2
    56    68    67   ar
    57    69    67   ar
    58   147   146    1
    59   146   143    1
    60   133   132    1
    61   133   142   am
    62    51    52   ar
    63    51    49   ar
    64   132   131    1
    65    52    50   ar
    66    67    66    1
    67    28    27    1
    68   158   155    1
    69    49    48   ar
    70    73    72    2
    71    72    71    1
    72    50    48   ar
    73    66    65    1
    74    44    47    1
    75    44    45    1
    76    48    47    1
    77   142   143    1
    78   145   144    2
    79   155   154    1
    80   155   156    1
    81   143   144    1
    82   144   148   am
    83   131   125   am
    84    65    62    1
    85   153   152    1
    86   126   125    2
    87    24    23    2
    88   148   149    1
    89    27    30    1
    90    27    26    1
    91    45    46    2
    92   149   152    1
    93   149   150    1
    94    77    75    1
    95   157   156    2
    96   125   124    1
    97    75    74    1
    98    75    76    1
    99    71    74    1
   100    71    70    1
   101    31    30    1
   102   156   166   am
   103    70    63   am
   104    23    26   am
   105    23    22    1
   106   151   150    2
   107   127   124    1
   108   127   128    1
   109    63    62    1
   110    63    64    2
   111    62    61    1
   112    25    22    1
   113    22    21    1
   114   124   123    1
   115   166   167    1
   116   130   129    1
   117    20    18   ar
   118   128   129    1
   119   169   168    2
   120    61    55   am
   121    56    55    2
   122   168   167    1
   123   122   120    1
   124   167   170    1
   125    18    19   ar
   126    18    17    1
   127    55    54    1
   128   111   110    1
   129   121   120    1
   130    95    94    2
   131    92    93    1
   132   120   119    2
   133    17    14    1
   134    53    54    1
   135   170   171    1
   136    54    57    1
   137   173   171    1
   138    94    93    1
   139    94    96   am
   140    16    15    2
   141   171   172    1
   142   119   118    1
   143   103   101   ar
   144   110   109    1
   145    15    14    1
   146    96    97    1
   147   101   102   ar
   148   101   100    1
   149    14    13    1
   150    97   100    1
   151    97    98    1
   152    58    57    1
   153    58    59    1
   154    58    60    1
   155   109   108    1
   156   104    98   am
   157   104   105    1
   158   118   117    1
   159   108   105    1
   160    98    99    2
   161   117   116    1
   162   105   106    1
   163   112   106   am
   164   112   113    1
   165   106   107    2
   166   116   113    1
   167   113   114    1
   168   114   115    2
