@<TRIPOS>MOLECULE
tmp/3bxrA00.pdb
 116 109 0 0 0
SMALL
GASTEIGER

@<TRIPOS>ATOM
      1  N          3.7320   -5.4590   27.1690 N.3     8  ARG8       -0.1245
      2  CA         3.1090   -4.6710   26.1030 C.3     8  ARG8        0.1563
      3  C          2.0090   -3.8230   26.7370 C.2     8  ARG8        0.2260
      4  O          1.2190   -4.3160   27.5500 O.2     8  ARG8       -0.2867
      5  CB         2.4980   -5.5850   25.0300 C.3     8  ARG8        0.0307
      6  CG         3.5230   -6.3400   24.2060 C.3     8  ARG8        0.0489
      7  CD         2.8580   -7.1430   23.1070 C.3     8  ARG8        0.2205
      8  NE         3.8250   -7.9520   22.3730 N.pl3   8  ARG8       -0.0865
      9  CZ         3.4950   -8.8380   21.4340 C.cat   8  ARG8        0.5346
     10  NH1        2.2160   -9.0270   21.1140 N.pl3   8  ARG8        0.1354
     11  NH2        4.4390   -9.5430   20.8240 N.pl3   8  ARG8        0.1354
     12  N         -3.0740   -2.1960   21.5710 N.3    23  LEU23      -0.1245
     13  CA        -1.7350   -1.7620   21.9660 C.3    23  LEU23       0.1561
     14  C         -1.4980   -0.2590   21.8120 C.2    23  LEU23       0.2260
     15  O         -1.6670    0.2790   20.7200 O.2    23  LEU23      -0.2867
     16  CB        -0.7200   -2.5290   21.1060 C.3    23  LEU23       0.0270
     17  CG         0.7840   -2.2800   21.3010 C.3    23  LEU23       0.0019
     18  CD1        1.2330   -2.8040   22.6620 C.3    23  LEU23       0.0001
     19  CD2        1.5590   -2.9870   20.1930 C.3    23  LEU23       0.0001
     20  N          0.5590    2.3730   20.9050 N.3    25  ASN25      -0.1240
     21  CA         1.7410    2.3590   20.0500 C.3    25  ASN25       0.1653
     22  C          2.2550    3.7350   19.6340 C.2    25  ASN25       0.2266
     23  O          1.7460    4.3170   18.6730 O.2    25  ASN25      -0.2867
     24  CB         1.3520    1.5300   18.8160 C.3    25  ASN25       0.1155
     25  CG         2.5180    1.1840   17.9280 C.2    25  ASN25       0.2627
     26  OD1        2.3750    0.3610   17.0090 O.2    25  ASN25      -0.2716
     27  ND2        3.6650    1.7850   18.1790 N.am   25  ASN25      -0.0877
     28  N          4.8660    4.2610   18.2140 N.3    27  GLY27      -0.1210
     29  CA         5.5840    4.0640   16.9660 C.3    27  GLY27       0.1956
     30  C          4.6510    3.9530   15.7670 C.2    27  GLY27       0.2612
     31  O          5.0670    3.5520   14.6710 O.2    27  GLY27      -0.2717
     32  N          3.3790    4.2960   15.9580 N.am   28  ALA28      -0.1965
     33  CA         2.4150    4.2180   14.8590 C.3    28  ALA28       0.1728
     34  C          1.7730    5.5740   14.5690 C.2    28  ALA28       0.2616
     35  O          1.2510    6.2250   15.4770 O.2    28  ALA28      -0.2715
     36  CB         1.3220    3.1950   15.1930 C.3    28  ALA28       0.0334
     37  N          1.8140    6.0080   13.3130 N.am   29  ASP29      -0.1957
     38  CA         1.1920    7.2830   12.9540 C.3    29  ASP29       0.1840
     39  C         -0.3230    7.1110   13.0270 C.2    29  ASP29       0.2622
     40  O         -1.0480    8.0200   13.4350 O.2    29  ASP29      -0.2715
     41  CB         1.5090    7.6890   11.5110 C.3    29  ASP29       0.1450
     42  CG         2.9710    7.9990   11.2720 C.2    29  ASP29       0.3671
     43  OD1        3.7600    8.1340   12.2280 O.co2  29  ASP29      -0.2456
     44  OD2        3.3220    8.1230   10.0830 O.co2  29  ASP29      -0.2456
     45  N         -0.7800    5.9250   12.6310 N.am   30  ASP30      -0.1971
     46  CA        -2.2010    5.6130   12.5670 C.3    30  ASP30       0.1709
     47  C         -2.6800    4.5040   13.4840 C.2    30  ASP30       0.2293
     48  O         -1.8910    3.7450   14.0370 O.2    30  ASP30      -0.2864
     49  CB        -2.5620    5.2340   11.1360 C.3    30  ASP30       0.1436
     50  CG        -2.0510    6.2320   10.1290 C.2    30  ASP30       0.3671
     51  OD1       -2.3020    7.4350   10.3070 O.co2  30  ASP30      -0.2456
     52  OD2       -1.3930    5.8080    9.1600 O.co2  30  ASP30      -0.2456
     53  N         -4.8020    1.0830   13.7750 N.3    32  VAL32      -0.1245
     54  CA        -5.2050   -0.0420   12.9370 C.3    32  VAL32       0.1561
     55  C         -5.8420   -1.1260   13.7790 C.2    32  VAL32       0.2260
     56  O         -5.2220   -1.6350   14.7130 O.2    32  VAL32      -0.2867
     57  CB        -3.9900   -0.6570   12.2070 C.3    32  VAL32       0.0252
     58  CG1       -4.4680   -1.5970   11.1000 C.3    32  VAL32       0.0019
     59  CG2       -3.1070    0.4510   11.6380 C.3    32  VAL32       0.0019
     60  N         -1.3290    0.8620    4.2060 N.3    47  ILE47      -0.1231
     61  CA        -0.4730    1.3750    5.2720 C.3    47  ILE47       0.1692
     62  C          0.7340    0.4530    5.4160 C.2    47  ILE47       0.2593
     63  O          0.6250   -0.7630    5.2190 O.2    47  ILE47      -0.2718
     64  CB        -1.2460    1.4150    6.6120 C.3    47  ILE47       0.0266
     65  CG1       -0.3840    2.0650    7.6880 C.3    47  ILE47       0.0019
     66  CG2       -1.6470    0.0160    7.0270 C.3    47  ILE47       0.0020
     67  CD1       -0.9710    3.3300    8.1860 C.3    47  ILE47       0.0001
     68  N          1.8800    1.0290    5.7560 N.am   48  GLY48      -0.1942
     69  CA         3.0770    0.2240    5.8770 C.3    48  GLY48       0.2014
     70  C          3.7270    0.2200    7.2450 C.2    48  GLY48       0.2639
     71  O          3.3380    0.9560    8.1510 O.2    48  GLY48      -0.2714
     72  N          4.7300   -0.6330    7.3800 N.am   49  GLY49      -0.1939
     73  CA         5.4670   -0.7470    8.6260 C.3    49  GLY49       0.2014
     74  C          6.5440   -1.7820    8.3810 C.2    49  GLY49       0.2638
     75  O          6.9320   -1.9960    7.2380 O.2    49  GLY49      -0.2714
     76  N          7.0390   -2.4170    9.4340 N.am   50  ILE50      -0.1977
     77  CA         8.0520   -3.4460    9.2600 C.3    50  ILE50       0.1596
     78  C          7.3530   -4.6060    8.5490 C.2    50  ILE50       0.2287
     79  O          6.2380   -4.9830    8.9130 O.2    50  ILE50      -0.2864
     80  CB         8.6160   -3.9340   10.6260 C.3    50  ILE50       0.0276
     81  CG1        9.4860   -2.8420   11.2630 C.3    50  ILE50       0.0022
     82  CG2        9.4350   -5.1910   10.4370 C.3    50  ILE50       0.0022
     83  CD1        8.7160   -1.8990   12.1570 C.3    50  ILE50       0.0001
     84  N          3.6410   -3.3980    3.3110 N.3    53  PHE53      -0.1241
     85  CA         2.3100   -2.8080    3.3360 C.3    53  PHE53       0.1605
     86  C          1.1720   -3.8090    3.3860 C.2    53  PHE53       0.2264
     87  O          1.3090   -4.9610    2.9610 O.2    53  PHE53      -0.2867
     88  CB         2.0690   -1.9580    2.0830 C.3    53  PHE53       0.0534
     89  CG         2.8190   -0.6670    2.0580 C.ar   53  PHE53      -0.0203
     90  CD1        4.1730   -0.6360    1.7530 C.ar   53  PHE53      -0.0042
     91  CD2        2.1590    0.5290    2.3270 C.ar   53  PHE53      -0.0042
     92  CE1        4.8670    0.5760    1.7150 C.ar   53  PHE53      -0.0003
     93  CE2        2.8420    1.7460    2.2900 C.ar   53  PHE53      -0.0003
     94  CZ         4.1910    1.7690    1.9850 C.ar   53  PHE53      -0.0000
     95  N         -1.4760   -7.5520   12.8370 N.3    80  PRO80      -0.2102
     96  CA        -1.1190   -8.6140   13.7900 C.3    80  PRO80       0.1504
     97  C         -1.7850   -8.4220   15.1480 C.2    80  PRO80       0.2575
     98  O         -2.1420   -9.3960   15.8220 O.2    80  PRO80      -0.2718
     99  CB         0.3990   -8.4980   13.8930 C.3    80  PRO80       0.0282
    100  CG         0.7970   -7.9010   12.5900 C.3    80  PRO80       0.0208
    101  CD        -0.2680   -6.8750   12.3330 C.3    80  PRO80       0.0893
    102  N         -1.9310   -7.1610   15.5540 N.am   81  VAL81      -0.1980
    103  CA        -2.5590   -6.8170   16.8280 C.3    81  VAL81       0.1595
    104  C         -3.3000   -5.4900   16.6770 C.2    81  VAL81       0.2287
    105  O         -2.9550   -4.6810   15.8090 O.2    81  VAL81      -0.2864
    106  CB        -1.4930   -6.6770   17.9470 C.3    81  VAL81       0.0276
    107  CG1       -0.4830   -5.6080   17.5770 C.3    81  VAL81       0.0022
    108  CG2       -2.1570   -6.3430   19.2700 C.3    81  VAL81       0.0022
    109  N         -3.9830   -1.8560   17.1820 N.3    83  ILE83      -0.1245
    110  CA        -3.0450   -0.7800   17.4590 C.3    83  ILE83       0.1561
    111  C         -3.6750    0.5930   17.5890 C.2    83  ILE83       0.2260
    112  O         -4.4090    1.0290   16.7040 O.2    83  ILE83      -0.2867
    113  CB        -1.9890   -0.7280   16.3250 C.3    83  ILE83       0.0252
    114  CG1       -1.0890   -1.9630   16.4310 C.3    83  ILE83       0.0019
    115  CG2       -1.1920    0.5910   16.3660 C.3    83  ILE83       0.0019
    116  CD1       -0.3210   -2.2630   15.1730 C.3    83  ILE83       0.0001
@<TRIPOS>BOND
     1    92    90   ar
     2    92    94   ar
     3    90    89   ar
     4    94    93   ar
     5    89    88    1
     6    89    91   ar
     7    88    85    1
     8    93    91   ar
     9    87    86    2
    10    84    85    1
    11    85    86    1
    12    60    61    1
    13    63    62    2
    14    61    62    1
    15    61    64    1
    16    62    68   am
    17    68    69    1
    18    69    70    1
    19    64    66    1
    20    64    65    1
    21    75    74    2
    22    70    72   am
    23    70    71    2
    24    72    73    1
    25    65    67    1
    26    74    73    1
    27    74    76   am
    28    78    79    2
    29    78    77    1
    30    52    50   ar
    31    77    76    1
    32    77    80    1
    33    44    42   ar
    34    50    51   ar
    35    50    49    1
    36    82    80    1
    37    80    81    1
    38    58    57    1
    39    49    46    1
    40    81    83    1
    41    42    41    1
    42    42    43   ar
    43    41    38    1
    44    59    57    1
    45    57    54    1
    46   101   100    1
    47   101    95    1
    48    46    45    1
    49    46    47    1
    50   100    99    1
    51    45    39   am
    52    95    96    1
    53    54    53    1
    54    54    55    1
    55    38    39    1
    56    38    37    1
    57    39    40    2
    58    37    34   am
    59    47    48    2
    60    55    56    2
    61    96    99    1
    62    96    97    1
    63    34    33    1
    64    34    35    2
    65    31    30    2
    66    33    36    1
    67    33    32    1
    68    97   102   am
    69    97    98    2
    70   116   114    1
    71   102   103    1
    72    30    32   am
    73    30    29    1
    74   105   104    2
    75   113   115    1
    76   113   114    1
    77   113   110    1
    78   104   103    1
    79   112   111    2
    80   103   106    1
    81    29    28    1
    82    26    25    2
    83   109   110    1
    84   110   111    1
    85   107   106    1
    86    25    27   am
    87    25    24    1
    88   106   108    1
    89    23    22    2
    90    24    21    1
    91    22    21    1
    92    21    20    1
    93    19    17    1
    94    15    14    2
    95    11     9    1
    96    16    17    1
    97    16    13    1
    98    10     9    1
    99    17    18    1
   100     9     8    2
   101    12    13    1
   102    14    13    1
   103     8     7    1
   104     7     6    1
   105     6     5    1
   106     5     2    1
   107     2     3    1
   108     2     1    1
   109     3     4    2
