@<TRIPOS>MOLECULE
tmp/3bxsB00.pdb
 73 67 0 0 0
SMALL
GASTEIGER

@<TRIPOS>ATOM
      1  N          6.1270   12.0380   15.4020 N.3     8  ARG8       -0.1245
      2  CA         6.8400   10.8110   15.7790 C.3     8  ARG8        0.1563
      3  C          7.8340   11.1850   16.8710 C.2     8  ARG8        0.2260
      4  O          8.5670   12.1780   16.7430 O.2     8  ARG8       -0.2867
      5  CB         7.6020   10.2350   14.5890 C.3     8  ARG8        0.0307
      6  CG         6.6950    9.7010   13.5290 C.3     8  ARG8        0.0489
      7  CD         7.4650    9.0170   12.4130 C.3     8  ARG8        0.2205
      8  NE         6.5150    8.6040   11.3900 N.pl3   8  ARG8       -0.0865
      9  CZ         6.8400    8.1390   10.1890 C.cat   8  ARG8        0.5346
     10  NH1        8.1160    8.0040    9.8360 N.pl3   8  ARG8        0.1354
     11  NH2        5.8760    7.8480    9.3220 N.pl3   8  ARG8        0.1354
     12  N         13.1730    6.1680   16.9860 N.3    23  LEU23      -0.1245
     13  CA        11.7870    6.2800   17.4330 C.3    23  LEU23       0.1561
     14  C         11.5350    5.5680   18.7680 C.2    23  LEU23       0.2260
     15  O         11.7820    4.3600   18.8850 O.2    23  LEU23      -0.2867
     16  CB        10.8990    5.6570   16.3500 C.3    23  LEU23       0.0270
     17  CG         9.3800    5.7450   16.4630 C.3    23  LEU23       0.0019
     18  CD1        8.9600    7.1840   16.2980 C.3    23  LEU23       0.0001
     19  CD2        8.7360    4.8760   15.3760 C.3    23  LEU23       0.0001
     20  N          9.4530    3.6590   20.7630 N.3    25  ASP25      -0.1239
     21  CA         8.3240    2.8390   20.3680 C.3    25  ASP25       0.1674
     22  C          7.7920    1.8640   21.4220 C.2    25  ASP25       0.2266
     23  O          8.3580    0.7810   21.6200 O.2    25  ASP25      -0.2867
     24  CB         8.7770    2.0680   19.1170 C.3    25  ASP25       0.1410
     25  CG         7.6560    1.3430   18.4240 C.2    25  ASP25       0.3668
     26  OD1        6.5480    1.2830   18.9900 O.co2  25  ASP25      -0.2456
     27  OD2        7.9010    0.8260   17.3060 O.co2  25  ASP25      -0.2456
     28  N          5.2150    0.1380   21.1880 N.3    27  GLY27      -0.1210
     29  CA         4.6060   -1.0110   20.5410 C.3    27  GLY27       0.1956
     30  C          5.6320   -2.0360   20.0960 C.2    27  GLY27       0.2611
     31  O          5.2810   -3.0530   19.4950 O.2    27  GLY27      -0.2717
     32  N          6.9030   -1.7840   20.3940 N.am   28  ALA28      -0.1979
     33  CA         7.9780   -2.7040   20.0040 C.3    28  ALA28       0.1597
     34  C          8.5740   -3.4440   21.1990 C.2    28  ALA28       0.2287
     35  O          9.0190   -2.8100   22.1720 O.2    28  ALA28      -0.2864
     36  CB         9.0770   -1.9300   19.2750 C.3    28  ALA28       0.0319
     37  N          3.3350   -5.1550   11.2940 N.3    50  ILE50      -0.1245
     38  CA         2.4450   -4.9500   10.1770 C.3    50  ILE50       0.1561
     39  C          3.2220   -5.1960    8.8900 C.2    50  ILE50       0.2260
     40  O          4.3490   -4.7270    8.7280 O.2    50  ILE50      -0.2867
     41  CB         1.8940   -3.5080   10.1680 C.3    50  ILE50       0.0252
     42  CG1        0.9390   -3.3170   11.3460 C.3    50  ILE50       0.0019
     43  CG2        1.1820   -3.2220    8.8480 C.3    50  ILE50       0.0019
     44  CD1       -0.2620   -4.2480   11.3180 C.3    50  ILE50       0.0001
     45  N         15.1760   -2.2180    8.6010 N.3    79  THR79      -0.1204
     46  CA        14.0130   -1.5170    9.1340 C.3    79  THR79       0.1979
     47  C         14.0590   -0.1170    8.5220 C.2    79  THR79       0.2460
     48  O         15.1340    0.4530    8.3410 O.2    79  THR79      -0.2732
     49  CB        14.0910   -1.3810   10.6630 C.3    79  THR79       0.1783
     50  OG1       12.9710   -0.6200   11.1350 O.3    79  THR79      -0.2211
     51  CG2       15.3800   -0.6650   11.0660 C.3    79  THR79       0.0376
     52  N         12.8950    0.4560    8.1890 N.am   80  PRO80      -0.2717
     53  CA        12.8620    1.7970    7.6000 C.3    80  PRO80       0.1535
     54  C         13.1730    2.9490    8.5600 C.2    80  PRO80       0.2598
     55  O         13.4890    4.0610    8.1330 O.2    80  PRO80      -0.2715
     56  CB        11.4440    1.8830    7.0360 C.3    80  PRO80       0.0310
     57  CG        10.6540    1.0410    7.9830 C.3    80  PRO80       0.0237
     58  CD        11.5580   -0.1680    8.1480 C.3    80  PRO80       0.0939
     59  N         13.0800    2.6770    9.8590 N.am   81  VAL81      -0.1978
     60  CA        13.3220    3.6860   10.8900 C.3    81  VAL81       0.1596
     61  C         13.9890    2.9850   12.0660 C.2    81  VAL81       0.2287
     62  O         13.7200    1.8040   12.3100 O.2    81  VAL81      -0.2864
     63  CB        11.9700    4.3160   11.3780 C.3    81  VAL81       0.0276
     64  CG1       12.2180    5.3300   12.5050 C.3    81  VAL81       0.0022
     65  CG2       11.2700    5.0100   10.2180 C.3    81  VAL81       0.0022
     66  N         14.3420    1.9190   15.6960 N.3    83  ILE83      -0.1245
     67  CA        13.3160    1.7130   16.7150 C.3    83  ILE83       0.1561
     68  C         13.8840    1.3810   18.0910 C.2    83  ILE83       0.2260
     69  O         14.6470    0.4260   18.2230 O.2    83  ILE83      -0.2867
     70  CB        12.3820    0.5410   16.3160 C.3    83  ILE83       0.0252
     71  CG1       11.6910    0.8400   14.9820 C.3    83  ILE83       0.0019
     72  CG2       11.3530    0.2830   17.4150 C.3    83  ILE83       0.0019
     73  CD1       10.6860    1.9690   15.0340 C.3    83  ILE83       0.0001
@<TRIPOS>BOND
     1    56    53    1
     2    56    57    1
     3    53    52    1
     4    53    54    1
     5    57    58    1
     6    55    54    2
     7    58    52    1
     8    52    47   am
     9    48    47    2
    10    47    46    1
    11    54    59   am
    12    45    46    1
    13    40    39    2
    14    43    41    1
    15    39    38    1
    16    46    49    1
    17    11     9    1
    18    10     9    1
    19    59    60    1
    20    41    38    1
    21    41    42    1
    22    38    37    1
    23     9     8    2
    24    65    63    1
    25    49    51    1
    26    49    50    1
    27    60    63    1
    28    60    61    1
    29    44    42    1
    30    63    64    1
    31     8     7    1
    32    61    62    2
    33     7     6    1
    34     6     5    1
    35     5     2    1
    36    71    73    1
    37    71    70    1
    38    19    17    1
    39     1     2    1
    40    66    67    1
    41     2     3    1
    42    18    17    1
    43    70    67    1
    44    70    72    1
    45    16    17    1
    46    16    13    1
    47    67    68    1
    48     4     3    2
    49    12    13    1
    50    27    25   ar
    51    13    14    1
    52    68    69    2
    53    25    26   ar
    54    25    24    1
    55    14    15    2
    56    24    21    1
    57    36    33    1
    58    31    30    2
    59    33    32    1
    60    33    34    1
    61    30    32   am
    62    30    29    1
    63    21    20    1
    64    21    22    1
    65    29    28    1
    66    34    35    2
    67    22    23    2
