@<TRIPOS>MOLECULE
tmp/3bxsB01.pdb
 100 95 0 0 0
SMALL
GASTEIGER

@<TRIPOS>ATOM
      1  N          9.4530    3.6590   20.7630 N.3    25  ASP25      -0.1239
      2  CA         8.3240    2.8390   20.3680 C.3    25  ASP25       0.1674
      3  C          7.7920    1.8640   21.4220 C.2    25  ASP25       0.2266
      4  O          8.3580    0.7810   21.6200 O.2    25  ASP25      -0.2867
      5  CB         8.7770    2.0680   19.1170 C.3    25  ASP25       0.1410
      6  CG         7.6560    1.3430   18.4240 C.2    25  ASP25       0.3668
      7  OD1        6.5480    1.2830   18.9900 O.co2  25  ASP25      -0.2456
      8  OD2        7.9010    0.8260   17.3060 O.co2  25  ASP25      -0.2456
      9  N          5.2150    0.1380   21.1880 N.3    27  GLY27      -0.1210
     10  CA         4.6060   -1.0110   20.5410 C.3    27  GLY27       0.1956
     11  C          5.6320   -2.0360   20.0960 C.2    27  GLY27       0.2612
     12  O          5.2810   -3.0530   19.4950 O.2    27  GLY27      -0.2717
     13  N          6.9030   -1.7840   20.3940 N.am   28  ALA28      -0.1965
     14  CA         7.9780   -2.7040   20.0040 C.3    28  ALA28       0.1728
     15  C          8.5740   -3.4440   21.1990 C.2    28  ALA28       0.2616
     16  O          9.0190   -2.8100   22.1720 O.2    28  ALA28      -0.2715
     17  CB         9.0770   -1.9300   19.2750 C.3    28  ALA28       0.0334
     18  N          8.5950   -4.7780   21.1310 N.am   29  ASP29      -0.1957
     19  CA         9.1780   -5.5680   22.2190 C.3    29  ASP29       0.1840
     20  C         10.6930   -5.3700   22.2240 C.2    29  ASP29       0.2622
     21  O         11.3340   -5.3010   23.2850 O.2    29  ASP29      -0.2715
     22  CB         8.9410   -7.0740   22.0240 C.3    29  ASP29       0.1450
     23  CG         7.4790   -7.4690   22.0240 C.2    29  ASP29       0.3671
     24  OD1        6.6290   -6.7070   22.5220 O.co2  29  ASP29      -0.2456
     25  OD2        7.1790   -8.5870   21.5430 O.co2  29  ASP29      -0.2456
     26  N         11.2540   -5.2980   21.0160 N.am   30  ASP30      -0.1971
     27  CA        12.6930   -5.1880   20.8180 C.3    30  ASP30       0.1709
     28  C         13.1200   -3.8860   20.1740 C.2    30  ASP30       0.2293
     29  O         12.2880   -3.1140   19.6730 O.2    30  ASP30      -0.2864
     30  CB        13.1720   -6.3360   19.9180 C.3    30  ASP30       0.1436
     31  CG        12.6020   -7.6830   20.3240 C.2    30  ASP30       0.3671
     32  OD1       12.7810   -8.0790   21.4930 O.co2  30  ASP30      -0.2456
     33  OD2       11.9770   -8.3500   19.4680 O.co2  30  ASP30      -0.2456
     34  N         15.2630   -2.2170   17.1710 N.3    32  VAL32      -0.1245
     35  CA        15.7230   -2.5730   15.8250 C.3    32  VAL32       0.1561
     36  C         16.3860   -1.3690   15.2020 C.2    32  VAL32       0.2260
     37  O         15.7710   -0.3120   15.0760 O.2    32  VAL32      -0.2867
     38  CB        14.5500   -3.0070   14.9170 C.3    32  VAL32       0.0252
     39  CG1       15.0960   -3.7130   13.6620 C.3    32  VAL32       0.0019
     40  CG2       13.5940   -3.9190   15.6970 C.3    32  VAL32       0.0019
     41  N         17.6000  -13.9120   13.5980 N.3    45  LYS45      -0.1231
     42  CA        16.2880  -13.7470   14.2150 C.3    45  LYS45       0.1693
     43  C         15.3120  -13.1870   13.1850 C.2    45  LYS45       0.2592
     44  O         15.7050  -12.5510   12.2050 O.2    45  LYS45      -0.2718
     45  CB        16.3720  -12.7770   15.4120 C.3    45  LYS45       0.0285
     46  CG        15.1090  -12.6990   16.2810 C.3    45  LYS45       0.0035
     47  CD        15.2790  -11.6700   17.3970 C.3    45  LYS45       0.0206
     48  CE        14.0490  -11.5880   18.2610 C.3    45  LYS45       0.1093
     49  NZ        13.8030  -12.8740   18.9540 N.3    45  LYS45      -0.1314
     50  N         14.0330  -13.4600   13.3900 N.am   46  MET46      -0.1965
     51  CA        13.0110  -12.9220   12.5170 C.3    46  MET46       0.1736
     52  C         12.0320  -12.1670   13.4020 C.2    46  MET46       0.2616
     53  O         11.5890  -12.6930   14.4270 O.2    46  MET46      -0.2715
     54  CB        12.3650  -14.0250   11.6650 C.3    46  MET46       0.0427
     55  CG        13.1960  -14.2720   10.3960 C.3    46  MET46       0.0599
     56  SD        12.6600  -15.6080    9.3170 S.3    46  MET46      -0.1393
     57  CE        11.2650  -14.8360    8.4840 C.3    46  MET46       0.0692
     58  N         11.7340  -10.9200   13.0410 N.am   47  ILE47      -0.1963
     59  CA        10.7860  -10.1270   13.8230 C.3    47  ILE47       0.1727
     60  C          9.6360   -9.7300   12.9220 C.2    47  ILE47       0.2617
     61  O          9.8180   -9.5130   11.7200 O.2    47  ILE47      -0.2715
     62  CB        11.4410   -8.8600   14.4520 C.3    47  ILE47       0.0290
     63  CG1       12.0580   -7.9720   13.3730 C.3    47  ILE47       0.0022
     64  CG2       12.4760   -9.2860   15.4710 C.3    47  ILE47       0.0023
     65  CD1       12.6900   -6.6970   13.9220 C.3    47  ILE47       0.0001
     66  N          8.4410   -9.6580   13.4970 N.am   48  GLY48      -0.1940
     67  CA         7.2870   -9.3190   12.7000 C.3    48  GLY48       0.2014
     68  C          6.5400   -8.0920   13.1690 C.2    48  GLY48       0.2639
     69  O          6.7700   -7.5720   14.2590 O.2    48  GLY48      -0.2714
     70  N          5.6280   -7.6470   12.3250 N.am   49  GLY49      -0.1939
     71  CA         4.8120   -6.4970   12.6420 C.3    49  GLY49       0.2014
     72  C          3.8770   -6.3460   11.4720 C.2    49  GLY49       0.2638
     73  O          3.6320   -7.3000   10.7300 O.2    49  GLY49      -0.2714
     74  N          3.3350   -5.1550   11.2940 N.am   50  ILE50      -0.1977
     75  CA         2.4450   -4.9500   10.1770 C.3    50  ILE50       0.1596
     76  C          3.2220   -5.1960    8.8900 C.2    50  ILE50       0.2287
     77  O          4.3490   -4.7270    8.7280 O.2    50  ILE50      -0.2864
     78  CB         1.8940   -3.5080   10.1680 C.3    50  ILE50       0.0276
     79  CG1        0.9390   -3.3170   11.3460 C.3    50  ILE50       0.0022
     80  CG2        1.1820   -3.2220    8.8480 C.3    50  ILE50       0.0022
     81  CD1       -0.2620   -4.2480   11.3180 C.3    50  ILE50       0.0001
     82  N          7.2260  -10.3040    8.3400 N.3    53  PHE53      -0.1241
     83  CA         8.4840  -10.4500    9.0600 C.3    53  PHE53       0.1605
     84  C          9.7110  -10.0180    8.2700 C.2    53  PHE53       0.2264
     85  O          9.6980  -10.0050    7.0430 O.2    53  PHE53      -0.2867
     86  CB         8.6940  -11.9180    9.4520 C.3    53  PHE53       0.0534
     87  CG         7.8140  -12.3890   10.5730 C.ar   53  PHE53      -0.0203
     88  CD1        6.4570  -12.6310   10.3630 C.ar   53  PHE53      -0.0042
     89  CD2        8.3430  -12.5820   11.8410 C.ar   53  PHE53      -0.0042
     90  CE1        5.6490  -13.0530   11.3960 C.ar   53  PHE53      -0.0003
     91  CE2        7.5280  -13.0120   12.9030 C.ar   53  PHE53      -0.0003
     92  CZ         6.1730  -13.2450   12.6680 C.ar   53  PHE53      -0.0000
     93  N         14.3420    1.9190   15.6960 N.3    83  ILE83      -0.1245
     94  CA        13.3160    1.7130   16.7150 C.3    83  ILE83       0.1561
     95  C         13.8840    1.3810   18.0910 C.2    83  ILE83       0.2260
     96  O         14.6470    0.4260   18.2230 O.2    83  ILE83      -0.2867
     97  CB        12.3820    0.5410   16.3160 C.3    83  ILE83       0.0252
     98  CG1       11.6910    0.8400   14.9820 C.3    83  ILE83       0.0019
     99  CG2       11.3530    0.2830   17.4150 C.3    83  ILE83       0.0019
    100  CD1       10.6860    1.9690   15.0340 C.3    83  ILE83       0.0001
@<TRIPOS>BOND
     1    85    84    2
     2    84    83    1
     3    82    83    1
     4    57    56    1
     5    77    76    2
     6    80    78    1
     7    76    75    1
     8    83    86    1
     9    56    55    1
    10    86    87    1
    11    78    75    1
    12    78    79    1
    13    75    74    1
    14    88    87   ar
    15    88    90   ar
    16    55    54    1
    17    87    89   ar
    18    73    72    2
    19    74    72   am
    20    81    79    1
    21    90    92   ar
    22    72    71    1
    23    54    51    1
    24    61    60    2
    25    89    91   ar
    26    44    43    2
    27    70    71    1
    28    70    68   am
    29    51    50    1
    30    51    52    1
    31    92    91   ar
    32    67    68    1
    33    67    66    1
    34    60    66   am
    35    60    59    1
    36    58    52   am
    37    58    59    1
    38    68    69    2
    39    43    50   am
    40    43    42    1
    41    63    65    1
    42    63    62    1
    43    52    53    2
    44    41    42    1
    45    39    38    1
    46    59    62    1
    47    42    45    1
    48    62    64    1
    49    38    40    1
    50    38    35    1
    51    98   100    1
    52    98    97    1
    53    37    36    2
    54    36    35    1
    55    45    46    1
    56    93    94    1
    57    35    34    1
    58    46    47    1
    59    97    94    1
    60    97    99    1
    61    94    95    1
    62     8     6   ar
    63    47    48    1
    64    95    96    2
    65    48    49    1
    66     6     7   ar
    67     6     5    1
    68     5     2    1
    69    17    14    1
    70    33    31   ar
    71    12    11    2
    72    29    28    2
    73    30    31    1
    74    30    27    1
    75    14    13    1
    76    14    15    1
    77    11    13   am
    78    11    10    1
    79    28    27    1
    80    31    32   ar
    81     2     1    1
    82     2     3    1
    83    10     9    1
    84    27    26    1
    85    26    20   am
    86    18    15   am
    87    18    19    1
    88    15    16    2
    89     3     4    2
    90    25    23   ar
    91    22    23    1
    92    22    19    1
    93    23    24   ar
    94    19    20    1
    95    20    21    2
