@<TRIPOS>MOLECULE
tmp/3bxuA00.pdb
 154 150 0 0 0
SMALL
GASTEIGER

@<TRIPOS>ATOM
      1  N          8.1150   -9.4200    6.9540 N.3     4  MET4       -0.1245
      2  CA         8.5940   -9.7470    8.2990 C.3     4  MET4        0.1570
      3  C          7.4100   -9.9540    9.2110 C.2     4  MET4        0.2261
      4  O          6.3610   -9.3320    9.0710 O.2     4  MET4       -0.2867
      5  CB         9.4750   -8.6370    8.8820 C.3     4  MET4        0.0387
      6  CG        10.7300   -8.3880    8.1010 C.3     4  MET4        0.0595
      7  SD        11.7090   -7.0800    8.7790 S.3     4  MET4       -0.1393
      8  CE        13.1300   -7.2570    7.7950 C.3     4  MET4        0.0692
      9  N          6.5550   -9.9510   13.2650 N.3     6  PHE6       -0.1241
     10  CA         6.9250   -9.6160   14.6310 C.3     6  PHE6        0.1605
     11  C          5.9210  -10.3120   15.5310 C.2     6  PHE6        0.2264
     12  O          4.7520   -9.9260   15.5840 O.2     6  PHE6       -0.2867
     13  CB         6.9090   -8.0900   14.8390 C.3     6  PHE6        0.0534
     14  CG         7.7430   -7.3240   13.8420 C.ar    6  PHE6       -0.0203
     15  CD1        8.9960   -7.7840   13.4660 C.ar    6  PHE6       -0.0042
     16  CD2        7.2730   -6.1700   13.2550 C.ar    6  PHE6       -0.0042
     17  CE1        9.7600   -7.0760   12.5540 C.ar    6  PHE6       -0.0003
     18  CE2        8.0460   -5.4780   12.3470 C.ar    6  PHE6       -0.0003
     19  CZ         9.2800   -5.9200   12.0180 C.ar    6  PHE6       -0.0000
     20  N          4.8690   -6.8800    8.5550 N.3    15  PHE15      -0.1241
     21  CA         5.5330   -5.6450    8.1730 C.3    15  PHE15       0.1605
     22  C          6.1810   -5.8410    6.8190 C.2    15  PHE15       0.2264
     23  O          7.0150   -6.7340    6.6460 O.2    15  PHE15      -0.2867
     24  CB         6.5950   -5.3260    9.2240 C.3    15  PHE15       0.0534
     25  CG         7.5150   -4.1690    8.8860 C.ar   15  PHE15      -0.0203
     26  CD1        7.0270   -2.8670    8.7170 C.ar   15  PHE15      -0.0042
     27  CD2        8.8900   -4.3800    8.8420 C.ar   15  PHE15      -0.0042
     28  CE1        7.8910   -1.8410    8.4550 C.ar   15  PHE15      -0.0003
     29  CE2        9.7540   -3.3450    8.5820 C.ar   15  PHE15      -0.0003
     30  CZ         9.2510   -2.0710    8.3980 C.ar   15  PHE15      -0.0000
     31  N          8.7230   -4.7680    4.8160 N.3    17  HIS17      -0.1241
     32  CA         9.9880   -4.0640    4.9070 C.3    17  HIS17       0.1621
     33  C         10.3550   -3.4880    3.5610 C.2    17  HIS17       0.2264
     34  O         10.7720   -2.3340    3.4980 O.2    17  HIS17      -0.2867
     35  CB        11.0550   -5.0610    5.4000 C.3    17  HIS17       0.0745
     36  CG        12.4160   -4.4740    5.6720 C.ar   17  HIS17       0.0817
     37  ND1       13.5540   -4.9300    5.0500 N.ar   17  HIS17      -0.2268
     38  CD2       12.8350   -3.5470    6.5710 C.ar   17  HIS17       0.1154
     39  CE1       14.6080   -4.2730    5.5090 C.ar   17  HIS17       0.1986
     40  NE2       14.1990   -3.4270    6.4410 N.ar   17  HIS17      -0.2212
     41  N          8.4250   -0.3920    2.8210 N.3    20  HIS20      -0.1226
     42  CA         8.8750    0.7190    3.6290 C.3    20  HIS20       0.1752
     43  C         10.2270    1.2600    3.1520 C.2    20  HIS20       0.2595
     44  O         10.4500    2.4570    3.1810 O.2    20  HIS20      -0.2718
     45  CB         8.9190    0.3470    5.1050 C.3    20  HIS20       0.0759
     46  CG         7.5810    0.3920    5.7860 C.ar   20  HIS20       0.0818
     47  ND1        6.6780   -0.6470    5.7460 N.ar   20  HIS20      -0.2268
     48  CD2        7.0210    1.3470    6.5680 C.ar   20  HIS20       0.1154
     49  CE1        5.6150   -0.3280    6.4680 C.ar   20  HIS20       0.1986
     50  NE2        5.7940    0.8790    6.9700 N.ar   20  HIS20      -0.2212
     51  N         11.1000    0.3830    2.6700 N.am   21  GLN21      -0.1979
     52  CA        12.3880    0.7950    2.1080 C.3    21  GLN21       0.1601
     53  C         12.1830    1.7060    0.9190 C.2    21  GLN21       0.2287
     54  O         12.9750    2.6040    0.6790 O.2    21  GLN21      -0.2864
     55  CB        13.2070   -0.4120    1.6470 C.3    21  GLN21       0.0394
     56  CG        13.8010   -1.2280    2.7710 C.3    21  GLN21       0.0908
     57  CD        14.4670   -2.5070    2.3150 C.2    21  GLN21       0.2608
     58  OE1       13.9620   -3.2050    1.4440 O.2    21  GLN21      -0.2717
     59  NE2       15.5830   -2.8460    2.9420 N.am   21  GLN21      -0.0878
     60  N          9.9970    5.1780    2.4570 N.3    24  VAL24      -0.1245
     61  CA        10.6000    5.9480    3.5400 C.3    24  VAL24       0.1561
     62  C         11.9500    6.3820    3.0330 C.2    24  VAL24       0.2260
     63  O         12.6690    5.5540    2.4710 O.2    24  VAL24      -0.2867
     64  CB        10.7140    5.1400    4.8250 C.3    24  VAL24       0.0252
     65  CG1       11.5600    5.8530    5.8690 C.3    24  VAL24       0.0019
     66  CG2        9.3180    4.8640    5.3580 C.3    24  VAL24       0.0019
     67  N         15.1320    7.1340    3.7150 N.3    26  ASP26      -0.1225
     68  CA        16.5310    6.7360    3.9590 C.3    26  ASP26       0.1805
     69  C         16.5170    5.5860    4.9780 C.2    26  ASP26       0.2598
     70  O         15.6820    5.6050    5.8530 O.2    26  ASP26      -0.2718
     71  CB        17.1930    7.9950    4.5330 C.3    26  ASP26       0.1424
     72  CG        18.6580    7.8610    4.8230 C.2    26  ASP26       0.3668
     73  OD1       19.3250    8.9220    4.8160 O.co2  26  ASP26      -0.2456
     74  OD2       19.2510    6.8110    5.1030 O.co2  26  ASP26      -0.2456
     75  N         17.4070    4.5850    4.8620 N.am   27  CYS27      -0.1970
     76  CA        17.4510    3.4780    5.8430 C.3    27  CYS27       0.1712
     77  C         17.6320    3.9930    7.2600 C.2    27  CYS27       0.2296
     78  O         17.1490    3.3850    8.1950 O.2    27  CYS27      -0.2864
     79  CB        18.5970    2.4980    5.5790 C.3    27  CYS27       0.0983
     80  SG        18.8400    1.9450    3.8740 S.3    27  CYS27      -0.0798
     81  N         16.3390    6.3280    8.8200 N.3    29  VAL29      -0.1231
     82  CA        15.1040    6.6500    9.5190 C.3    29  VAL29       0.1692
     83  C         14.8140    5.6050   10.5860 C.2    29  VAL29       0.2592
     84  O         14.4660    5.9400   11.7200 O.2    29  VAL29      -0.2718
     85  CB        13.9260    6.7850    8.5390 C.3    29  VAL29       0.0266
     86  CG1       12.5730    6.8870    9.2880 C.3    29  VAL29       0.0020
     87  CG2       14.1090    7.9690    7.6140 C.3    29  VAL29       0.0020
     88  N         15.0280    4.3360   10.2500 N.am   30  CYS30      -0.1956
     89  CA        14.7530    3.2550   11.1680 C.3    30  CYS30       0.1843
     90  C         15.9900    2.5970   11.7350 C.2    30  CYS30       0.2625
     91  O         15.9110    1.9800   12.7890 O.2    30  CYS30      -0.2714
     92  CB        13.9510    2.2020   10.4320 C.3    30  CYS30       0.0997
     93  SG        12.4310    2.9030    9.7950 S.3    30  CYS30      -0.0797
     94  N         17.1300    2.7550   11.0530 N.am   31  HIS31      -0.1973
     95  CA        18.3530    2.0060   11.3750 C.3    31  HIS31       0.1656
     96  C         19.5130    2.8350   11.9060 C.2    31  HIS31       0.2291
     97  O         20.5230    2.2630   12.3190 O.2    31  HIS31      -0.2864
     98  CB        18.8870    1.2430   10.1340 C.3    31  HIS31       0.0771
     99  CG        18.0750    0.0340    9.7740 C.ar   31  HIS31       0.0820
    100  ND1       18.2370   -1.1790   10.3990 N.ar   31  HIS31      -0.2267
    101  CD2       17.1440   -0.1650    8.8180 C.ar   31  HIS31       0.1154
    102  CE1       17.4040   -2.0590    9.8810 C.ar   31  HIS31       0.1986
    103  NE2       16.7080   -1.4660    8.9360 N.ar   31  HIS31      -0.2212
    104  N         22.4290    0.1160    8.1870 N.3    35  PRO35      -0.2102
    105  CA        21.3820   -0.8940    8.3180 C.3    35  PRO35       0.1504
    106  C         21.9780   -2.1460    8.9360 C.2    35  PRO35       0.2576
    107  O         23.0870   -2.5700    8.6000 O.2    35  PRO35      -0.2718
    108  CB        20.9150   -1.1500    6.8790 C.3    35  PRO35       0.0282
    109  CG        21.6480   -0.2400    6.0250 C.3    35  PRO35       0.0208
    110  CD        22.7590    0.4010    6.7830 C.3    35  PRO35       0.0893
    111  N         21.2350   -2.7160    9.8560 N.am   36  GLY36      -0.1943
    112  CA        21.6930   -3.8250   10.6760 C.3    36  GLY36       0.2014
    113  C         20.5950   -4.0610   11.6870 C.2    36  GLY36       0.2639
    114  O         19.5230   -3.4610   11.6190 O.2    36  GLY36      -0.2714
    115  N         20.8330   -4.9650   12.6170 N.am   37  LYS37      -0.1963
    116  CA        19.8190   -5.2780   13.5950 C.3    37  LYS37       0.1728
    117  C         19.5440   -4.0460   14.4260 C.2    37  LYS37       0.2616
    118  O         20.4730   -3.3450   14.8380 O.2    37  LYS37      -0.2715
    119  CB        20.2720   -6.4400   14.4670 C.3    37  LYS37       0.0311
    120  CG        19.2280   -6.8880   15.4600 C.3    37  LYS37       0.0038
    121  CD        19.5910   -8.2170   16.1040 C.3    37  LYS37       0.0206
    122  CE        19.4410   -9.4260   15.1700 C.3    37  LYS37       0.1093
    123  NZ        18.1000   -9.5460   14.6280 N.3    37  LYS37      -0.1314
    124  N         18.2640   -3.7940   14.6640 N.am   38  ILE38      -0.1977
    125  CA        17.8370   -2.6170   15.4250 C.3    38  ILE38       0.1596
    126  C         17.8090   -3.0190   16.8800 C.2    38  ILE38       0.2287
    127  O         16.9030   -3.7170   17.3500 O.2    38  ILE38      -0.2864
    128  CB        16.4760   -2.0860   14.9680 C.3    38  ILE38       0.0276
    129  CG1       16.5410   -1.6450   13.5010 C.3    38  ILE38       0.0022
    130  CG2       16.0180   -0.9250   15.8520 C.3    38  ILE38       0.0022
    131  CD1       15.1600   -1.3940   12.9120 C.3    38  ILE38       0.0001
    132  N         14.7040   -3.4010   19.5260 N.3    41  PHE41      -0.1241
    133  CA        13.4140   -3.3480   18.8670 C.3    41  PHE41       0.1605
    134  C         12.4020   -4.2480   19.5730 C.2    41  PHE41       0.2264
    135  O         12.7160   -5.3660   19.9730 O.2    41  PHE41      -0.2867
    136  CB        13.4990   -3.7030   17.3890 C.3    41  PHE41       0.0534
    137  CG        12.1980   -3.5290   16.6810 C.ar   41  PHE41      -0.0203
    138  CD1       11.7140   -2.2570   16.3960 C.ar   41  PHE41      -0.0042
    139  CD2       11.4250   -4.6240   16.3480 C.ar   41  PHE41      -0.0042
    140  CE1       10.5040   -2.1050   15.7690 C.ar   41  PHE41      -0.0003
    141  CE2       10.2030   -4.4600   15.7400 C.ar   41  PHE41      -0.0003
    142  CZ         9.7330   -3.2120   15.4620 C.ar   41  PHE41      -0.0000
    143  N          9.7590    4.2860   16.1930 N.3    50  SER50      -0.1202
    144  CA        10.1030    3.2650   15.2150 C.3    50  SER50       0.2020
    145  C          8.9610    2.8170   14.3220 C.2    50  SER50       0.2619
    146  O          9.2370    2.4180   13.2050 O.2    50  SER50      -0.2717
    147  CB        10.7590    2.0450   15.8580 C.3    50  SER50       0.2103
    148  OG        12.0070    2.4300   16.4310 O.3    50  SER50      -0.2182
    149  N          7.7130    2.8610   14.7860 N.am   51  CYS51      -0.1969
    150  CA         6.5860    2.4830   13.9330 C.3    51  CYS51       0.1712
    151  C          5.4110    3.4530   14.0750 C.2    51  CYS51       0.2296
    152  O          5.1770    4.2930   13.2100 O.2    51  CYS51      -0.2864
    153  CB         6.1060    1.0410   14.2120 C.3    51  CYS51       0.0983
    154  SG         7.3680   -0.2500   14.1770 S.3    51  CYS51      -0.0798
@<TRIPOS>BOND
     1    54    53    2
     2    53    52    1
     3    58    57    2
     4    55    52    1
     5    55    56    1
     6    52    51    1
     7    57    56    1
     8    57    59   am
     9    60    61    1
    10    63    62    2
    11    51    43   am
    12    41    42    1
    13    62    61    1
    14    43    44    2
    15    43    42    1
    16    34    33    2
    17    61    64    1
    18    33    32    1
    19    42    45    1
    20    67    68    1
    21    80    79    1
    22    68    71    1
    23    68    69    1
    24    71    72    1
    25    31    32    1
    26    73    72   ar
    27    72    74   ar
    28    64    66    1
    29    64    65    1
    30    75    69   am
    31    75    76    1
    32    32    35    1
    33    69    70    2
    34    37    39   ar
    35    37    36   ar
    36    45    46    1
    37    35    36    1
    38    39    40   ar
    39    79    76    1
    40    36    38   ar
    41    47    46   ar
    42    47    49   ar
    43    46    48   ar
    44    76    77    1
    45   109   110    1
    46   109   108    1
    47    40    38   ar
    48    49    50   ar
    49    48    50   ar
    50    23    22    2
    51   110   104    1
    52    22    21    1
    53   108   105    1
    54     1     2    1
    55    77    78    2
    56    87    85    1
    57     8     7    1
    58     6     7    1
    59     6     5    1
    60    21    20    1
    61    21    24    1
    62   104   105    1
    63     2     5    1
    64     2     3    1
    65   105   106    1
    66    30    28   ar
    67    30    29   ar
    68    28    26   ar
    69    85    86    1
    70    85    82    1
    71    29    27   ar
    72   107   106    2
    73    26    25   ar
    74   101   103   ar
    75   101    99   ar
    76    81    82    1
    77    27    25   ar
    78    25    24    1
    79   106   111   am
    80   103   102   ar
    81     4     3    2
    82    82    83    1
    83    99    98    1
    84    99   100   ar
    85    93    92    1
    86   111   112    1
    87   102   100   ar
    88    98    95    1
    89    88    83   am
    90    88    89    1
    91    92    89    1
    92    83    84    2
    93   112   113    1
    94    94    95    1
    95    94    90   am
    96    89    90    1
    97    95    96    1
    98   114   113    2
    99   113   115   am
   100    90    91    2
   101    96    97    2
   102    19    18   ar
   103    19    17   ar
   104    18    16   ar
   105    17    15   ar
   106   115   116    1
   107   131   129    1
   108   146   145    2
   109   152   151    2
   110    16    14   ar
   111     9    10    1
   112    15    14   ar
   113   129   128    1
   114   116   117    1
   115   116   119    1
   116    14    13    1
   117   150   151    1
   118   150   153    1
   119   150   149    1
   120   154   153    1
   121   145   149   am
   122   145   144    1
   123   117   124   am
   124   117   118    2
   125   119   120    1
   126   123   122    1
   127    10    13    1
   128    10    11    1
   129   124   125    1
   130   128   125    1
   131   128   130    1
   132   122   121    1
   133   144   147    1
   134   144   143    1
   135   125   126    1
   136   120   121    1
   137   142   141   ar
   138   142   140   ar
   139    11    12    2
   140   141   139   ar
   141   140   138   ar
   142   147   148    1
   143   139   137   ar
   144   138   137   ar
   145   137   136    1
   146   126   127    2
   147   136   133    1
   148   133   132    1
   149   133   134    1
   150   134   135    2
