@<TRIPOS>MOLECULE
tmp/3bxuA01.pdb
 202 196 0 0 0
SMALL
GASTEIGER

@<TRIPOS>ATOM
      1  N          6.5550   -9.9510   13.2650 N.3     6  PHE6       -0.1241
      2  CA         6.9250   -9.6160   14.6310 C.3     6  PHE6        0.1605
      3  C          5.9210  -10.3120   15.5310 C.2     6  PHE6        0.2264
      4  O          4.7520   -9.9260   15.5840 O.2     6  PHE6       -0.2867
      5  CB         6.9090   -8.0900   14.8390 C.3     6  PHE6        0.0534
      6  CG         7.7430   -7.3240   13.8420 C.ar    6  PHE6       -0.0203
      7  CD1        8.9960   -7.7840   13.4660 C.ar    6  PHE6       -0.0042
      8  CD2        7.2730   -6.1700   13.2550 C.ar    6  PHE6       -0.0042
      9  CE1        9.7600   -7.0760   12.5540 C.ar    6  PHE6       -0.0003
     10  CE2        8.0460   -5.4780   12.3470 C.ar    6  PHE6       -0.0003
     11  CZ         9.2800   -5.9200   12.0180 C.ar    6  PHE6       -0.0000
     12  N          2.4060   -8.9930   14.1260 N.3    13  VAL13      -0.1231
     13  CA         2.4310   -7.8410   13.2540 C.3    13  VAL13       0.1692
     14  C          3.1770   -8.2080   11.9810 C.2    13  VAL13       0.2593
     15  O          4.3210   -8.6390   12.0380 O.2    13  VAL13      -0.2718
     16  CB         3.0810   -6.6260   13.9520 C.3    13  VAL13       0.0266
     17  CG1        3.0680   -5.4330   13.0060 C.3    13  VAL13       0.0020
     18  CG2        2.3700   -6.3070   15.2680 C.3    13  VAL13       0.0020
     19  N          2.5250   -8.0410   10.8380 N.am   14  THR14      -0.1939
     20  CA         3.1460   -8.2460    9.5450 C.3    14  THR14       0.2028
     21  C          3.6190   -6.9220    8.9890 C.2    14  THR14       0.2642
     22  O          2.8650   -5.9810    8.9370 O.2    14  THR14      -0.2714
     23  CB         2.1370   -8.8660    8.5670 C.3    14  THR14       0.1808
     24  OG1        1.6390  -10.0940    9.1060 O.3    14  THR14      -0.2208
     25  CG2        2.8150   -9.2400    7.2500 C.3    14  THR14       0.0379
     26  N          4.8690   -6.8800    8.5550 N.am   15  PHE15      -0.1959
     27  CA         5.5330   -5.6450    8.1730 C.3    15  PHE15       0.1771
     28  C          6.1810   -5.8410    6.8190 C.2    15  PHE15       0.2619
     29  O          7.0150   -6.7340    6.6460 O.2    15  PHE15      -0.2715
     30  CB         6.5950   -5.3260    9.2240 C.3    15  PHE15       0.0574
     31  CG         7.5150   -4.1690    8.8860 C.ar   15  PHE15      -0.0200
     32  CD1        7.0270   -2.8670    8.7170 C.ar   15  PHE15      -0.0042
     33  CD2        8.8900   -4.3800    8.8420 C.ar   15  PHE15      -0.0042
     34  CE1        7.8910   -1.8410    8.4550 C.ar   15  PHE15      -0.0003
     35  CE2        9.7540   -3.3450    8.5820 C.ar   15  PHE15      -0.0003
     36  CZ         9.2510   -2.0710    8.3980 C.ar   15  PHE15      -0.0000
     37  N          5.7730   -5.0410    5.8430 N.am   16  ASP16      -0.1971
     38  CA         6.3610   -5.0610    4.5230 C.3    16  ASP16       0.1709
     39  C          7.5890   -4.1630    4.5290 C.2    16  ASP16       0.2293
     40  O          7.5280   -2.9610    4.2930 O.2    16  ASP16      -0.2864
     41  CB         5.3320   -4.5810    3.5100 C.3    16  ASP16       0.1436
     42  CG         5.7220   -4.8970    2.0880 C.2    16  ASP16       0.3671
     43  OD1        6.9320   -5.0310    1.8090 O.co2  16  ASP16      -0.2456
     44  OD2        4.8770   -5.0360    1.1810 O.co2  16  ASP16      -0.2456
     45  N          8.4680   -2.5570    1.0640 N.3    19  LYS19      -0.1231
     46  CA         7.6190   -1.4230    0.7590 C.3    19  LYS19       0.1693
     47  C          8.0800   -0.2070    1.5510 C.2    19  LYS19       0.2592
     48  O          8.1580    0.8870    1.0240 O.2    19  LYS19      -0.2718
     49  CB         6.1550   -1.7350    1.0400 C.3    19  LYS19       0.0285
     50  CG         5.2270   -0.6120    0.6370 C.3    19  LYS19       0.0035
     51  CD         3.8010   -0.9160    1.0010 C.3    19  LYS19       0.0206
     52  CE         2.9400    0.2990    0.7850 C.3    19  LYS19       0.1093
     53  NZ         1.5410    0.0350    1.1820 N.3    19  LYS19      -0.1314
     54  N          8.4250   -0.3920    2.8210 N.am   20  HIS20      -0.1976
     55  CA         8.8750    0.7190    3.6290 C.3    20  HIS20       0.1656
     56  C         10.2270    1.2600    3.1520 C.2    20  HIS20       0.2291
     57  O         10.4500    2.4570    3.1810 O.2    20  HIS20      -0.2864
     58  CB         8.9190    0.3470    5.1050 C.3    20  HIS20       0.0771
     59  CG         7.5810    0.3920    5.7860 C.ar   20  HIS20       0.0820
     60  ND1        6.6780   -0.6470    5.7460 N.ar   20  HIS20      -0.2267
     61  CD2        7.0210    1.3470    6.5680 C.ar   20  HIS20       0.1154
     62  CE1        5.6150   -0.3280    6.4680 C.ar   20  HIS20       0.1986
     63  NE2        5.7940    0.8790    6.9700 N.ar   20  HIS20      -0.2212
     64  N          9.3560    3.6520    0.2270 N.3    23  ILE23      -0.1231
     65  CA         8.6330    4.9000    0.4670 C.3    23  ILE23       0.1692
     66  C          9.2810    5.7770    1.5180 C.2    23  ILE23       0.2592
     67  O          9.1520    6.9810    1.4710 O.2    23  ILE23      -0.2718
     68  CB         7.1340    4.6270    0.7990 C.3    23  ILE23       0.0266
     69  CG1        6.9630    3.9790    2.1640 C.3    23  ILE23       0.0019
     70  CG2        6.5160    3.7510   -0.2880 C.3    23  ILE23       0.0020
     71  CD1        5.5170    3.8070    2.5490 C.3    23  ILE23       0.0001
     72  N          9.9970    5.1780    2.4570 N.am   24  VAL24      -0.1966
     73  CA        10.6000    5.9480    3.5400 C.3    24  VAL24       0.1712
     74  C         11.9500    6.3820    3.0330 C.2    24  VAL24       0.2458
     75  O         12.6690    5.5540    2.4710 O.2    24  VAL24      -0.2730
     76  CB        10.7140    5.1400    4.8250 C.3    24  VAL24       0.0289
     77  CG1       11.5600    5.8530    5.8690 C.3    24  VAL24       0.0023
     78  CG2        9.3180    4.8640    5.3580 C.3    24  VAL24       0.0023
     79  N         12.2810    7.6690    3.2420 N.am   25  PRO25      -0.2727
     80  CA        13.3660    8.3580    2.5200 C.3    25  PRO25       0.1402
     81  C         14.7770    7.7610    2.6010 C.2    25  PRO25       0.2269
     82  O         15.5290    7.8940    1.6360 O.2    25  PRO25      -0.2865
     83  CB        13.3630    9.7780    3.1300 C.3    25  PRO25       0.0296
     84  CG        12.4960    9.7580    4.2980 C.3    25  PRO25       0.0237
     85  CD        11.5690    8.5980    4.1490 C.3    25  PRO25       0.0939
     86  N         16.3390    6.3280    8.8200 N.3    29  VAL29      -0.1231
     87  CA        15.1040    6.6500    9.5190 C.3    29  VAL29       0.1692
     88  C         14.8140    5.6050   10.5860 C.2    29  VAL29       0.2592
     89  O         14.4660    5.9400   11.7200 O.2    29  VAL29      -0.2718
     90  CB        13.9260    6.7850    8.5390 C.3    29  VAL29       0.0266
     91  CG1       12.5730    6.8870    9.2880 C.3    29  VAL29       0.0020
     92  CG2       14.1090    7.9690    7.6140 C.3    29  VAL29       0.0020
     93  N         15.0280    4.3360   10.2500 N.am   30  CYS30      -0.1970
     94  CA        14.7530    3.2550   11.1680 C.3    30  CYS30       0.1712
     95  C         15.9900    2.5970   11.7350 C.2    30  CYS30       0.2296
     96  O         15.9110    1.9800   12.7890 O.2    30  CYS30      -0.2864
     97  CB        13.9510    2.2020   10.4320 C.3    30  CYS30       0.0983
     98  SG        12.4310    2.9030    9.7950 S.3    30  CYS30      -0.0798
     99  N         18.2640   -3.7940   14.6640 N.3    38  ILE38      -0.1245
    100  CA        17.8370   -2.6170   15.4250 C.3    38  ILE38       0.1561
    101  C         17.8090   -3.0190   16.8800 C.2    38  ILE38       0.2260
    102  O         16.9030   -3.7170   17.3500 O.2    38  ILE38      -0.2867
    103  CB        16.4760   -2.0860   14.9680 C.3    38  ILE38       0.0252
    104  CG1       16.5410   -1.6450   13.5010 C.3    38  ILE38       0.0019
    105  CG2       16.0180   -0.9250   15.8520 C.3    38  ILE38       0.0019
    106  CD1       15.1600   -1.3940   12.9120 C.3    38  ILE38       0.0001
    107  N         14.7040   -3.4010   19.5260 N.3    41  PHE41      -0.1241
    108  CA        13.4140   -3.3480   18.8670 C.3    41  PHE41       0.1605
    109  C         12.4020   -4.2480   19.5730 C.2    41  PHE41       0.2264
    110  O         12.7160   -5.3660   19.9730 O.2    41  PHE41      -0.2867
    111  CB        13.4990   -3.7030   17.3890 C.3    41  PHE41       0.0534
    112  CG        12.1980   -3.5290   16.6810 C.ar   41  PHE41      -0.0203
    113  CD1       11.7140   -2.2570   16.3960 C.ar   41  PHE41      -0.0042
    114  CD2       11.4250   -4.6240   16.3480 C.ar   41  PHE41      -0.0042
    115  CE1       10.5040   -2.1050   15.7690 C.ar   41  PHE41      -0.0003
    116  CE2       10.2030   -4.4600   15.7400 C.ar   41  PHE41      -0.0003
    117  CZ         9.7330   -3.2120   15.4620 C.ar   41  PHE41      -0.0000
    118  N          8.4050    0.1940   18.8590 N.3    46  ALA46      -0.1245
    119  CA         7.3260    0.0780   17.8750 C.3    46  ALA46       0.1562
    120  C          6.1840    1.0300   18.1600 C.2    46  ALA46       0.2260
    121  O          5.6380    1.6340   17.2400 O.2    46  ALA46      -0.2867
    122  CB         6.8240   -1.3390   17.8050 C.3    46  ALA46       0.0290
    123  N          8.7180    5.9770   18.1520 N.3    49  LYS49      -0.1231
    124  CA         9.1800    6.5580   16.8970 C.3    49  LYS49       0.1693
    125  C          9.5070    5.5370   15.8160 C.2    49  LYS49       0.2593
    126  O          9.5350    5.8920   14.6450 O.2    49  LYS49      -0.2718
    127  CB        10.3860    7.4760   17.1510 C.3    49  LYS49       0.0285
    128  CG        10.0490    8.7480   17.9140 C.3    49  LYS49       0.0035
    129  CD        11.3120    9.4180   18.5010 C.3    49  LYS49       0.0206
    130  CE        11.1090    9.8070   19.9620 C.3    49  LYS49       0.1093
    131  NZ         9.9570   10.7420   20.1030 N.3    49  LYS49      -0.1314
    132  N          9.7590    4.2860   16.1930 N.am   50  SER50      -0.1938
    133  CA        10.1030    3.2650   15.2150 C.3    50  SER50       0.2055
    134  C          8.9610    2.8170   14.3220 C.2    50  SER50       0.2643
    135  O          9.2370    2.4180   13.2050 O.2    50  SER50      -0.2714
    136  CB        10.7590    2.0450   15.8580 C.3    50  SER50       0.2130
    137  OG        12.0070    2.4300   16.4310 O.3    50  SER50      -0.2179
    138  N          7.7130    2.8610   14.7860 N.am   51  CYS51      -0.1967
    139  CA         6.5860    2.4830   13.9330 C.3    51  CYS51       0.1712
    140  C          5.4110    3.4530   14.0750 C.2    51  CYS51       0.2296
    141  O          5.1770    4.2930   13.2100 O.2    51  CYS51      -0.2864
    142  CB         6.1060    1.0410   14.2120 C.3    51  CYS51       0.0983
    143  SG         7.3680   -0.2500   14.1770 S.3    51  CYS51      -0.0798
    144  N          5.7020    7.3750   13.4870 N.3    54  CYS54      -0.1221
    145  CA         5.7350    7.8750   12.1200 C.3    54  CYS54       0.1808
    146  C          4.3260    7.9530   11.5320 C.2    54  CYS54       0.2601
    147  O          3.9370    8.9450   10.9440 O.2    54  CYS54      -0.2717
    148  CB         6.6060    7.0380   11.2100 C.3    54  CYS54       0.0970
    149  SG         6.4770    7.6810    9.5150 S.3    54  CYS54      -0.0800
    150  N          3.5690    6.8840   11.6880 N.am   55  HIS55      -0.1975
    151  CA         2.2270    6.8070   11.1350 C.3    55  HIS55       0.1656
    152  C          1.3550    7.9180   11.6940 C.2    55  HIS55       0.2291
    153  O          0.5890    8.5400   10.9690 O.2    55  HIS55      -0.2864
    154  CB         1.6090    5.4560   11.4740 C.3    55  HIS55       0.0771
    155  CG         2.3260    4.2650   10.8980 C.ar   55  HIS55       0.0820
    156  ND1        2.0990    2.9980   11.3680 N.ar   55  HIS55      -0.2267
    157  CD2        3.2880    4.1390    9.9540 C.ar   55  HIS55       0.1154
    158  CE1        2.8270    2.1310   10.6890 C.ar   55  HIS55       0.1986
    159  NE2        3.5300    2.7900    9.7950 N.ar   55  HIS55      -0.2212
    160  N          2.8800   11.5660   10.4350 N.3    58  MET58      -0.1245
    161  CA         2.7510   11.7790    8.9920 C.3    58  MET58       0.1570
    162  C          1.3440   11.5260    8.4680 C.2    58  MET58       0.2261
    163  O          1.0980   11.6710    7.2720 O.2    58  MET58      -0.2867
    164  CB         3.7720   10.9100    8.2460 C.3    58  MET58       0.0387
    165  CG         5.2180   11.1170    8.6870 C.3    58  MET58       0.0595
    166  SD         5.7130   12.8840    8.7980 S.3    58  MET58      -0.1393
    167  CE         7.2190   12.8630    9.7550 C.3    58  MET58       0.0692
    168  N         -0.4040    8.8890    7.9540 N.3    60  LYS60      -0.1231
    169  CA        -0.4740    7.8130    6.9730 C.3    60  LYS60       0.1693
    170  C          0.0650    6.5410    7.6080 C.2    60  LYS60       0.2593
    171  O          1.1500    6.5370    8.1680 O.2    60  LYS60      -0.2718
    172  CB         0.3580    8.1800    5.7390 C.3    60  LYS60       0.0285
    173  CG         0.0040    7.4190    4.4710 C.3    60  LYS60       0.0035
    174  CD         0.9090    7.8720    3.3170 C.3    60  LYS60       0.0206
    175  CE         0.8340    6.9270    2.1180 C.3    60  LYS60       0.1093
    176  NZ         0.7520    7.6140    0.8100 N.3    60  LYS60      -0.1314
    177  N         -0.6950    5.4590    7.5060 N.am   61  GLY61      -0.1943
    178  CA        -0.3430    4.1910    8.1060 C.3    61  GLY61       0.1998
    179  C         -1.1030    3.9110    9.3980 C.2    61  GLY61       0.2480
    180  O         -1.7940    4.7660    9.9580 O.2    61  GLY61      -0.2729
    181  N         -0.9790    2.6870    9.8840 N.am   62  PRO62      -0.2726
    182  CA        -1.7710    2.2300   11.0320 C.3    62  PRO62       0.1402
    183  C         -1.3750    2.8480   12.3880 C.2    62  PRO62       0.2269
    184  O         -0.2070    2.8670   12.7960 O.2    62  PRO62      -0.2865
    185  CB        -1.5390    0.7110   11.0130 C.3    62  PRO62       0.0296
    186  CG        -0.2710    0.5330   10.3560 C.3    62  PRO62       0.0237
    187  CD        -0.1920    1.5950    9.3010 C.3    62  PRO62       0.0939
    188  N         -5.0280   -2.5790   13.5700 N.3    67  GLU67      -0.1231
    189  CA        -4.4240   -2.3410   12.2660 C.3    67  GLU67       0.1699
    190  C         -3.0340   -2.9670   12.1340 C.2    67  GLU67       0.2592
    191  O         -2.6100   -3.2790   11.0310 O.2    67  GLU67      -0.2718
    192  CB        -4.3110   -0.8530   11.9490 C.3    67  GLU67       0.0402
    193  CG        -5.6060   -0.0720   11.7820 C.3    67  GLU67       0.1161
    194  CD        -5.3230    1.3570   11.3420 C.2    67  GLU67       0.3649
    195  OE1       -5.3840    1.6420   10.1130 O.co2  67  GLU67      -0.2457
    196  OE2       -4.9720    2.1920   12.2080 O.co2  67  GLU67      -0.2457
    197  N         -2.3220   -3.1270   13.2550 N.am   68  CYS68      -0.1970
    198  CA        -1.0340   -3.8020   13.2790 C.3    68  CYS68       0.1712
    199  C         -1.1340   -5.2230   13.8040 C.2    68  CYS68       0.2296
    200  O         -0.5860   -6.1260   13.1860 O.2    68  CYS68      -0.2864
    201  CB        -0.0470   -3.0210   14.1220 C.3    68  CYS68       0.0983
    202  SG         0.4760   -1.5150   13.3020 S.3    68  CYS68      -0.0798
@<TRIPOS>BOND
     1    70    68    1
     2    64    65    1
     3    65    68    1
     4    65    66    1
     5    50    51    1
     6    50    49    1
     7    46    49    1
     8    46    45    1
     9    46    47    1
    10    52    51    1
    11    52    53    1
    12    68    69    1
    13   176   175    1
    14    48    47    2
    15    44    42   ar
    16    67    66    2
    17    66    72   am
    18    47    54   am
    19    82    81    2
    20    43    42   ar
    21    42    41    1
    22   175   174    1
    23    69    71    1
    24    72    73    1
    25    75    74    2
    26    80    81    1
    27    80    83    1
    28    80    79    1
    29    54    55    1
    30    74    79   am
    31    74    73    1
    32    83    84    1
    33    56    57    2
    34    56    55    1
    35    79    85    1
    36   174   173    1
    37    41    38    1
    38    73    76    1
    39    55    58    1
    40    85    84    1
    41    40    39    2
    42   173   172    1
    43    38    39    1
    44    38    37    1
    45    76    78    1
    46    76    77    1
    47    58    59    1
    48   172   169    1
    49    60    59   ar
    50    60    62   ar
    51    59    61   ar
    52    37    28   am
    53    62    63   ar
    54    61    63   ar
    55    29    28    2
    56    28    27    1
    57   169   170    1
    58   169   168    1
    59    25    23    1
    60   163   162    2
    61   177   170   am
    62   177   178    1
    63   170   171    2
    64    92    90    1
    65   178   179    1
    66    27    26    1
    67    27    30    1
    68   164   165    1
    69   164   161    1
    70    36    34   ar
    71    36    35   ar
    72    34    32   ar
    73   162   161    1
    74    90    91    1
    75    90    87    1
    76    26    21   am
    77    23    24    1
    78    23    20    1
    79    35    33   ar
    80   165   166    1
    81    32    31   ar
    82   166   167    1
    83    86    87    1
    84    33    31   ar
    85    31    30    1
    86    22    21    2
    87    21    20    1
    88   161   160    1
    89   187   181    1
    90   187   186    1
    91   179   181   am
    92   179   180    2
    93   149   148    1
    94    87    88    1
    95    20    19    1
    96   159   157   ar
    97   159   158   ar
    98    98    97    1
    99   181   182    1
   100   157   155   ar
   101   195   194   ar
   102    93    88   am
   103    93    94    1
   104   186   185    1
   105    97    94    1
   106    88    89    2
   107   158   156   ar
   108    19    14   am
   109   155   156   ar
   110   155   154    1
   111   147   146    2
   112   153   152    2
   113   185   182    1
   114   191   190    2
   115   182   183    1
   116   151   154    1
   117   151   150    1
   118   151   152    1
   119    94    95    1
   120   148   145    1
   121   194   193    1
   122   194   196   ar
   123   146   150   am
   124   146   145    1
   125    95    96    2
   126   193   192    1
   127   192   189    1
   128    14    15    2
   129    14    13    1
   130    11    10   ar
   131    11     9   ar
   132   145   144    1
   133   190   189    1
   134   190   197   am
   135   189   188    1
   136    10     8   ar
   137   183   184    2
   138     9     7   ar
   139   106   104    1
   140    17    16    1
   141   200   199    2
   142   135   134    2
   143   141   140    2
   144    13    16    1
   145    13    12    1
   146   197   198    1
   147     8     6   ar
   148     1     2    1
   149   198   199    1
   150   198   201    1
   151   202   201    1
   152     7     6   ar
   153   104   103    1
   154     6     5    1
   155   139   140    1
   156   139   142    1
   157   139   138    1
   158    16    18    1
   159   143   142    1
   160   134   138   am
   161   134   133    1
   162     2     5    1
   163     2     3    1
   164   126   125    2
   165    99   100    1
   166   103   100    1
   167   103   105    1
   168   133   136    1
   169   133   132    1
   170   100   101    1
   171   117   116   ar
   172   117   115   ar
   173     3     4    2
   174   116   114   ar
   175   115   113   ar
   176   125   132   am
   177   125   124    1
   178   136   137    1
   179   114   112   ar
   180   113   112   ar
   181   112   111    1
   182   101   102    2
   183   124   127    1
   184   124   123    1
   185   127   128    1
   186   121   120    2
   187   111   108    1
   188   122   119    1
   189   119   120    1
   190   119   118    1
   191   128   129    1
   192   129   130    1
   193   108   107    1
   194   108   109    1
   195   109   110    2
   196   130   131    1
