@<TRIPOS>MOLECULE
tmp/3bxuA02.pdb
 156 154 0 0 0
SMALL
GASTEIGER

@<TRIPOS>ATOM
      1  N          6.5550   -9.9510   13.2650 N.3     6  PHE6       -0.1227
      2  CA         6.9250   -9.6160   14.6310 C.3     6  PHE6        0.1736
      3  C          5.9210  -10.3120   15.5310 C.2     6  PHE6        0.2596
      4  O          4.7520   -9.9260   15.5840 O.2     6  PHE6       -0.2718
      5  CB         6.9090   -8.0900   14.8390 C.3     6  PHE6        0.0547
      6  CG         7.7430   -7.3240   13.8420 C.ar    6  PHE6       -0.0202
      7  CD1        8.9960   -7.7840   13.4660 C.ar    6  PHE6       -0.0042
      8  CD2        7.2730   -6.1700   13.2550 C.ar    6  PHE6       -0.0042
      9  CE1        9.7600   -7.0760   12.5540 C.ar    6  PHE6       -0.0003
     10  CE2        8.0460   -5.4780   12.3470 C.ar    6  PHE6       -0.0003
     11  CZ         9.2800   -5.9200   12.0180 C.ar    6  PHE6       -0.0000
     12  N          6.3420  -11.3660   16.2220 N.am    7  THR7       -0.1939
     13  CA         5.4150  -12.1040   17.0680 C.3     7  THR7        0.2028
     14  C          5.0400  -11.2930   18.3070 C.2     7  THR7        0.2642
     15  O          5.8650  -10.6140   18.9110 O.2     7  THR7       -0.2714
     16  CB         5.9300  -13.4920   17.4620 C.3     7  THR7        0.1808
     17  OG1        7.2170  -13.3820   18.0730 O.3     7  THR7       -0.2208
     18  CG2        6.1300  -14.3820   16.2450 C.3     7  THR7        0.0379
     19  N          3.7630  -11.3570   18.6500 N.am    8  ALA8       -0.1963
     20  CA         3.2110  -10.6220   19.7700 C.3     8  ALA8        0.1728
     21  C          2.0330  -11.4080   20.3270 C.2     8  ALA8        0.2616
     22  O          1.2500  -11.9990   19.5780 O.2     8  ALA8       -0.2715
     23  CB         2.8090   -9.2250   19.3100 C.3     8  ALA8        0.0334
     24  N          1.9040  -11.4210   21.6460 N.am    9  LYS9       -0.1963
     25  CA         0.8700  -12.2310   22.2960 C.3     9  LYS9        0.1728
     26  C         -0.5420  -11.8160   21.8970 C.2     9  LYS9        0.2616
     27  O         -1.4530  -12.6440   21.8340 O.2     9  LYS9       -0.2715
     28  CB         1.0170  -12.1580   23.8230 C.3     9  LYS9        0.0311
     29  CG         0.8440  -10.7450   24.4150 C.3     9  LYS9        0.0038
     30  CD         0.9300  -10.7360   25.9340 C.3     9  LYS9        0.0206
     31  CE         0.8430   -9.3290   26.5020 C.3     9  LYS9        0.1093
     32  NZ         0.5270   -9.3500   27.9570 N.3     9  LYS9       -0.1314
     33  N         -0.7040  -10.5270   21.6370 N.am   10  ASN10      -0.1972
     34  CA        -1.9900   -9.9600   21.2330 C.3    10  ASN10       0.1688
     35  C         -2.2300   -9.9320   19.7230 C.2    10  ASN10       0.2292
     36  O         -3.1500   -9.2720   19.2630 O.2    10  ASN10      -0.2864
     37  CB        -2.1250   -8.5510   21.8010 C.3    10  ASN10       0.1181
     38  CG        -1.0690   -7.6120   21.2700 C.2    10  ASN10       0.2629
     39  OD1        0.1060   -7.9500   21.2200 O.2    10  ASN10      -0.2716
     40  ND2       -1.4870   -6.4090   20.8980 N.am   10  ASN10      -0.0877
     41  N          2.4060   -8.9930   14.1260 N.3    13  VAL13      -0.1245
     42  CA         2.4310   -7.8410   13.2540 C.3    13  VAL13       0.1561
     43  C          3.1770   -8.2080   11.9810 C.2    13  VAL13       0.2260
     44  O          4.3210   -8.6390   12.0380 O.2    13  VAL13      -0.2867
     45  CB         3.0810   -6.6260   13.9520 C.3    13  VAL13       0.0252
     46  CG1        3.0680   -5.4330   13.0060 C.3    13  VAL13       0.0019
     47  CG2        2.3700   -6.3070   15.2680 C.3    13  VAL13       0.0019
     48  N         14.7040   -3.4010   19.5260 N.3    41  PHE41      -0.1227
     49  CA        13.4140   -3.3480   18.8670 C.3    41  PHE41       0.1736
     50  C         12.4020   -4.2480   19.5730 C.2    41  PHE41       0.2596
     51  O         12.7160   -5.3660   19.9730 O.2    41  PHE41      -0.2718
     52  CB        13.4990   -3.7030   17.3890 C.3    41  PHE41       0.0547
     53  CG        12.1980   -3.5290   16.6810 C.ar   41  PHE41      -0.0202
     54  CD1       11.7140   -2.2570   16.3960 C.ar   41  PHE41      -0.0042
     55  CD2       11.4250   -4.6240   16.3480 C.ar   41  PHE41      -0.0042
     56  CE1       10.5040   -2.1050   15.7690 C.ar   41  PHE41      -0.0003
     57  CE2       10.2030   -4.4600   15.7400 C.ar   41  PHE41      -0.0003
     58  CZ         9.7330   -3.2120   15.4620 C.ar   41  PHE41      -0.0000
     59  N         11.1920   -3.7280   19.7300 N.am   42  GLY42      -0.1942
     60  CA        10.1680   -4.3710   20.5080 C.3    42  GLY42       0.2014
     61  C          9.0360   -3.4070   20.7620 C.2    42  GLY42       0.2638
     62  O          8.9080   -2.4230   20.0520 O.2    42  GLY42      -0.2714
     63  N          8.2250   -3.6840   21.7840 N.am   43  LYS43      -0.1977
     64  CA         7.0100   -2.9190   22.0740 C.3    43  LYS43       0.1596
     65  C          7.2530   -1.4130   22.1780 C.2    43  LYS43       0.2287
     66  O          6.5870   -0.6240   21.5210 O.2    43  LYS43      -0.2864
     67  CB         6.3720   -3.4550   23.3640 C.3    43  LYS43       0.0298
     68  CG         5.1270   -2.7470   23.8110 C.3    43  LYS43       0.0038
     69  CD         4.7270   -3.2430   25.1990 C.3    43  LYS43       0.0206
     70  CE         3.4100   -2.6640   25.6520 C.3    43  LYS43       0.1093
     71  NZ         3.2250   -2.9600   27.0910 N.3    43  LYS43      -0.1314
     72  N          8.4050    0.1940   18.8590 N.3    46  ALA46      -0.1231
     73  CA         7.3260    0.0780   17.8750 C.3    46  ALA46       0.1694
     74  C          6.1840    1.0300   18.1600 C.2    46  ALA46       0.2592
     75  O          5.6380    1.6340   17.2400 O.2    46  ALA46      -0.2718
     76  CB         6.8240   -1.3390   17.8050 C.3    46  ALA46       0.0304
     77  N          5.8310    1.1930   19.4310 N.am   47  HIS47      -0.1976
     78  CA         4.7390    2.0990   19.7790 C.3    47  HIS47       0.1656
     79  C          5.2000    3.5610   19.7930 C.2    47  HIS47       0.2291
     80  O          4.3730    4.4530   19.7420 O.2    47  HIS47      -0.2864
     81  CB         4.0960    1.7210   21.1240 C.3    47  HIS47       0.0771
     82  CG         3.4000    0.3950   21.1000 C.ar   47  HIS47       0.0820
     83  ND1        3.0130   -0.2710   22.2410 N.ar   47  HIS47      -0.2267
     84  CD2        2.9710   -0.3630   20.0650 C.ar   47  HIS47       0.1154
     85  CE1        2.4330   -1.4070   21.9110 C.ar   47  HIS47       0.1986
     86  NE2        2.4180   -1.5040   20.5980 N.ar   47  HIS47      -0.2212
     87  N          7.7130    2.8610   14.7860 N.3    51  CYS51      -0.1221
     88  CA         6.5860    2.4830   13.9330 C.3    51  CYS51       0.1808
     89  C          5.4110    3.4530   14.0750 C.2    51  CYS51       0.2601
     90  O          5.1770    4.2930   13.2100 O.2    51  CYS51      -0.2717
     91  CB         6.1060    1.0410   14.2120 C.3    51  CYS51       0.0970
     92  SG         7.3680   -0.2500   14.1770 S.3    51  CYS51      -0.0800
     93  N          4.6540    3.3120   15.1550 N.am   52  LYS52      -0.1979
     94  CA         3.4090    4.0520   15.3330 C.3    52  LYS52       0.1596
     95  C          3.6190    5.5610   15.2360 C.2    52  LYS52       0.2287
     96  O          2.7830    6.2740   14.6730 O.2    52  LYS52      -0.2864
     97  CB         2.7510    3.6730   16.6500 C.3    52  LYS52       0.0298
     98  CG         1.3090    4.1190   16.7570 C.3    52  LYS52       0.0038
     99  CD         0.6630    3.6660   18.0730 C.3    52  LYS52       0.0206
    100  CE         1.0440    4.5410   19.2390 C.3    52  LYS52       0.1093
    101  NZ        -0.0710    4.6160   20.2460 N.3    52  LYS52      -0.1314
    102  N          3.5690    6.8840   11.6880 N.3    55  HIS55      -0.1241
    103  CA         2.2270    6.8070   11.1350 C.3    55  HIS55       0.1621
    104  C          1.3550    7.9180   11.6940 C.2    55  HIS55       0.2264
    105  O          0.5890    8.5400   10.9690 O.2    55  HIS55      -0.2867
    106  CB         1.6090    5.4560   11.4740 C.3    55  HIS55       0.0745
    107  CG         2.3260    4.2650   10.8980 C.ar   55  HIS55       0.0817
    108  ND1        2.0990    2.9980   11.3680 N.ar   55  HIS55      -0.2268
    109  CD2        3.2880    4.1390    9.9540 C.ar   55  HIS55       0.1154
    110  CE1        2.8270    2.1310   10.6890 C.ar   55  HIS55       0.1986
    111  NE2        3.5300    2.7900    9.7950 N.ar   55  HIS55      -0.2212
    112  N         -0.9790    2.6870    9.8840 N.3    62  PRO62      -0.2102
    113  CA        -1.7710    2.2300   11.0320 C.3    62  PRO62       0.1504
    114  C         -1.3750    2.8480   12.3880 C.2    62  PRO62       0.2576
    115  O         -0.2070    2.8670   12.7960 O.2    62  PRO62      -0.2718
    116  CB        -1.5390    0.7110   11.0130 C.3    62  PRO62       0.0282
    117  CG        -0.2710    0.5330   10.3560 C.3    62  PRO62       0.0208
    118  CD        -0.1920    1.5950    9.3010 C.3    62  PRO62       0.0893
    119  N         -2.3850    3.3370   13.0980 N.am   63  THR63      -0.1939
    120  CA        -2.2150    3.8340   14.4610 C.3    63  THR63       0.2028
    121  C         -3.0820    3.1200   15.4850 C.2    63  THR63       0.2642
    122  O         -2.8510    3.2710   16.6790 O.2    63  THR63      -0.2714
    123  CB        -2.5350    5.3110   14.5270 C.3    63  THR63       0.1808
    124  OG1       -3.8530    5.5190   14.0270 O.3    63  THR63      -0.2208
    125  CG2       -1.6260    6.1190   13.6060 C.3    63  THR63       0.0379
    126  N         -4.0430    2.3340   15.0290 N.am   64  LYS64      -0.1963
    127  CA        -4.9490    1.6060   15.9230 C.3    64  LYS64       0.1728
    128  C         -4.4510    0.1860   16.1230 C.2    64  LYS64       0.2616
    129  O         -3.8540   -0.4030   15.2260 O.2    64  LYS64      -0.2715
    130  CB        -6.3510    1.5940   15.3280 C.3    64  LYS64       0.0311
    131  CG        -6.9080    2.9900   15.0370 C.3    64  LYS64       0.0038
    132  CD        -6.8110    3.9410   16.2390 C.3    64  LYS64       0.0206
    133  CE        -7.3010    5.3460   15.8880 C.3    64  LYS64       0.1093
    134  NZ        -7.4360    6.1960   17.1160 N.3    64  LYS64      -0.1314
    135  N         -4.6820   -0.3700   17.3130 N.am   65  CYS65      -0.1968
    136  CA        -4.0520   -1.6430   17.6950 C.3    65  CYS65       0.1712
    137  C         -4.2640   -2.7190   16.6540 C.2    65  CYS65       0.2296
    138  O         -3.3180   -3.3530   16.2110 O.2    65  CYS65      -0.2864
    139  CB        -4.5740   -2.1760   19.0280 C.3    65  CYS65       0.0983
    140  SG        -4.8030   -0.9550   20.3290 S.3    65  CYS65      -0.0798
    141  N         -2.3220   -3.1270   13.2550 N.3    68  CYS68      -0.1221
    142  CA        -1.0340   -3.8020   13.2790 C.3    68  CYS68       0.1808
    143  C         -1.1340   -5.2230   13.8040 C.2    68  CYS68       0.2601
    144  O         -0.5860   -6.1260   13.1860 O.2    68  CYS68      -0.2717
    145  CB        -0.0470   -3.0210   14.1220 C.3    68  CYS68       0.0970
    146  SG         0.4760   -1.5150   13.3020 S.3    68  CYS68      -0.0800
    147  N         -1.7830   -5.4010   14.9610 N.am   69  HIS69      -0.1975
    148  CA        -1.8550   -6.6990   15.6440 C.3    69  HIS69       0.1656
    149  C         -3.0330   -7.4800   15.1140 C.2    69  HIS69       0.2291
    150  O         -4.1800   -7.0650   15.2920 O.2    69  HIS69      -0.2864
    151  CB        -2.0280   -6.5240   17.1610 C.3    69  HIS69       0.0771
    152  CG        -0.8770   -5.8300   17.8030 C.ar   69  HIS69       0.0820
    153  ND1        0.2600   -6.5030   18.1700 N.ar   69  HIS69      -0.2267
    154  CD2       -0.6850   -4.5410   18.1610 C.ar   69  HIS69       0.1154
    155  CE1        1.1200   -5.6520   18.6990 C.ar   69  HIS69       0.1986
    156  NE2        0.5850   -4.4470   18.6780 N.ar   69  HIS69      -0.2212
@<TRIPOS>BOND
     1   118   112    1
     2   118   117    1
     3   111   109   ar
     4   111   110   ar
     5   112   113    1
     6   109   107   ar
     7   117   116    1
     8   110   108   ar
     9   107   108   ar
    10   107   106    1
    11   105   104    2
    12   116   113    1
    13   113   114    1
    14   103   106    1
    15   103   102    1
    16   103   104    1
    17    43    44    2
    18    43    42    1
    19    11    10   ar
    20    11     9   ar
    21    10     8   ar
    22   114   115    2
    23   114   119   am
    24     9     7   ar
    25    46    45    1
    26   119   120    1
    27   144   143    2
    28    90    89    2
    29    42    45    1
    30    42    41    1
    31     8     6   ar
    32   141   142    1
    33     1     2    1
    34   142   143    1
    35   142   145    1
    36   146   145    1
    37     7     6   ar
    38   125   123    1
    39   143   147   am
    40     6     5    1
    41    88    89    1
    42    88    91    1
    43    88    87    1
    44    45    47    1
    45   124   123    1
    46    89    93   am
    47    92    91    1
    48   120   123    1
    49   120   121    1
    50     2     5    1
    51     2     3    1
    52    96    95    2
    53   147   148    1
    54   126   121   am
    55   126   127    1
    56   131   130    1
    57   131   132    1
    58   149   150    2
    59   149   148    1
    60    93    94    1
    61   129   128    2
    62    95    94    1
    63   130   127    1
    64    94    97    1
    65    58    57   ar
    66    58    56   ar
    67   121   122    2
    68     3     4    2
    69     3    12   am
    70   148   151    1
    71    57    55   ar
    72    56    54   ar
    73   133   132    1
    74   133   134    1
    75   127   128    1
    76   128   135   am
    77   138   137    2
    78    12    13    1
    79    18    16    1
    80    55    53   ar
    81    54    53   ar
    82    97    98    1
    83   137   136    1
    84    53    52    1
    85    98    99    1
    86    13    16    1
    87    13    14    1
    88   151   152    1
    89    75    74    2
    90   135   136    1
    91    52    49    1
    92    16    17    1
    93   136   139    1
    94   152   154   ar
    95   152   153   ar
    96    76    73    1
    97    73    74    1
    98    73    72    1
    99    99   100    1
   100    74    77   am
   101   154   156   ar
   102   153   155   ar
   103    14    19   am
   104    14    15    2
   105    19    20    1
   106   156   155   ar
   107    49    48    1
   108    49    50    1
   109   139   140    1
   110   100   101    1
   111    36    35    2
   112    23    20    1
   113    77    78    1
   114    50    59   am
   115    50    51    2
   116    22    21    2
   117    35    34    1
   118    59    60    1
   119    80    79    2
   120    20    21    1
   121    78    79    1
   122    78    81    1
   123    62    61    2
   124    84    86   ar
   125    84    82   ar
   126    21    24   am
   127    60    61    1
   128    86    85   ar
   129    61    63   am
   130    40    38   am
   131    82    81    1
   132    82    83   ar
   133    39    38    2
   134    34    33    1
   135    34    37    1
   136    38    37    1
   137    66    65    2
   138    33    26   am
   139    24    25    1
   140    63    64    1
   141    27    26    2
   142    26    25    1
   143    85    83   ar
   144    64    65    1
   145    64    67    1
   146    25    28    1
   147    67    68    1
   148    68    69    1
   149    28    29    1
   150    29    30    1
   151    69    70    1
   152    70    71    1
   153    30    31    1
   154    31    32    1
