@<TRIPOS>MOLECULE
tmp/3by0C01.pdb
 124 115 0 0 0
SMALL
GASTEIGER

@<TRIPOS>ATOM
      1  N         39.7540   44.5180   37.9130 N.3    51  THR51      -0.1218
      2  CA        39.5820   44.1140   39.3010 C.3    51  THR51       0.1862
      3  C         38.3440   44.8130   39.8620 C.2    51  THR51       0.2287
      4  O         38.1990   46.0330   39.7430 O.2    51  THR51      -0.2866
      5  CB        40.8240   44.4440   40.1530 C.3    51  THR51       0.1770
      6  OG1       41.9870   43.8660   39.5470 O.3    51  THR51      -0.2211
      7  CG2       40.6710   43.9030   41.5740 C.3    51  THR51       0.0375
      8  N         36.8420   40.6290   46.3170 N.3    63  VAL63      -0.1245
      9  CA        37.6360   41.1150   45.1980 C.3    63  VAL63       0.1561
     10  C         37.7060   40.0670   44.0920 C.2    63  VAL63       0.2260
     11  O         38.1230   38.9350   44.3260 O.2    63  VAL63      -0.2867
     12  CB        39.0620   41.5070   45.6480 C.3    63  VAL63       0.0252
     13  CG1       39.8880   41.9850   44.4580 C.3    63  VAL63       0.0019
     14  CG2       39.0000   42.5820   46.7230 C.3    63  VAL63       0.0019
     15  N         39.2880   39.5350   40.2760 N.3    65  SER65      -0.1217
     16  CA        40.0680   39.9140   39.1050 C.3    65  SER65       0.1889
     17  C         39.6660   39.0330   37.9300 C.2    65  SER65       0.2288
     18  O         39.5630   37.8130   38.0660 O.2    65  SER65      -0.2866
     19  CB        41.5670   39.8170   39.3790 C.3    65  SER65       0.2089
     20  OG        41.9940   40.9200   40.1620 O.3    65  SER65      -0.2183
     21  N         39.9540   35.3000   39.4440 N.3    76  ALA76      -0.1231
     22  CA        40.6940   35.1930   40.7000 C.3    76  ALA76       0.1694
     23  C         39.9040   35.8760   41.8100 C.2    76  ALA76       0.2592
     24  O         39.5450   37.0490   41.6920 O.2    76  ALA76      -0.2718
     25  CB        42.0650   35.8290   40.5630 C.3    76  ALA76       0.0304
     26  N         39.6480   35.1320   42.8820 N.am   77  ILE77      -0.1966
     27  CA        38.8090   35.5920   43.9850 C.3    77  ILE77       0.1727
     28  C         39.6110   35.7330   45.2760 C.2    77  ILE77       0.2616
     29  O         40.5070   34.9360   45.5530 O.2    77  ILE77      -0.2715
     30  CB        37.5970   34.6430   44.1880 C.3    77  ILE77       0.0290
     31  CG1       36.3000   35.3630   43.8090 C.3    77  ILE77       0.0022
     32  CG2       37.5010   34.1590   45.6270 C.3    77  ILE77       0.0023
     33  CD1       36.1450   35.5840   42.3170 C.3    77  ILE77       0.0001
     34  N         39.2850   36.7630   46.0520 N.am   78  ALA78      -0.1977
     35  CA        39.9230   37.0020   47.3490 C.3    78  ALA78       0.1597
     36  C         39.0910   37.9400   48.2200 C.2    78  ALA78       0.2287
     37  O         38.2190   38.6570   47.7230 O.2    78  ALA78      -0.2864
     38  CB        41.3100   37.5700   47.1540 C.3    78  ALA78       0.0319
     39  N         39.5540   41.0790   50.9710 N.3    80  PHE80      -0.1241
     40  CA        40.4210   42.1090   51.5380 C.3    80  PHE80       0.1605
     41  C         39.8160   42.6230   52.8420 C.2    80  PHE80       0.2264
     42  O         38.8040   43.3230   52.8390 O.2    80  PHE80      -0.2867
     43  CB        40.5890   43.2640   50.5490 C.3    80  PHE80       0.0534
     44  CG        41.5330   42.9740   49.3980 C.ar   80  PHE80      -0.0203
     45  CD1       41.8650   43.9880   48.5060 C.ar   80  PHE80      -0.0042
     46  CD2       42.0940   41.7140   49.2050 C.ar   80  PHE80      -0.0042
     47  CE1       42.7250   43.7500   47.4430 C.ar   80  PHE80      -0.0003
     48  CE2       42.9550   41.4720   48.1490 C.ar   80  PHE80      -0.0003
     49  CZ        43.2730   42.4920   47.2670 C.ar   80  PHE80      -0.0000
     50  N         44.8750   40.1240   53.5500 N.3    91  LEU91      -0.1245
     51  CA        44.1880   39.0420   52.8440 C.3    91  LEU91       0.1561
     52  C         43.4760   38.1430   53.8450 C.2    91  LEU91       0.2260
     53  O         44.0790   37.6740   54.8110 O.2    91  LEU91      -0.2867
     54  CB        45.1790   38.2280   52.0050 C.3    91  LEU91       0.0270
     55  CG        44.6160   37.2880   50.9290 C.3    91  LEU91       0.0019
     56  CD1       43.8470   38.0490   49.8620 C.3    91  LEU91       0.0001
     57  CD2       45.7440   36.4830   50.2960 C.3    91  LEU91       0.0001
     58  N         46.2050   29.7200   51.2460 N.3    97  TYR97      -0.1241
     59  CA        47.2100   30.0440   50.2350 C.3    97  TYR97       0.1605
     60  C         48.5690   29.4640   50.6350 C.2    97  TYR97       0.2264
     61  O         49.2660   30.0400   51.4730 O.2    97  TYR97      -0.2867
     62  CB        47.3240   31.5570   50.0570 C.3    97  TYR97       0.0534
     63  CG        46.0300   32.2470   49.6900 C.ar   97  TYR97      -0.0201
     64  CD1       45.1730   32.7250   50.6760 C.ar   97  TYR97      -0.0009
     65  CD2       45.6700   32.4400   48.3620 C.ar   97  TYR97      -0.0009
     66  CE1       43.9890   33.3700   50.3520 C.ar   97  TYR97       0.0417
     67  CE2       44.4790   33.0840   48.0240 C.ar   97  TYR97       0.0417
     68  CZ        43.6480   33.5490   49.0260 C.ar   97  TYR97       0.1957
     69  OH        42.4740   34.1920   48.7110 O.3    97  TYR97      -0.2866
     70  N         52.2230   31.2620   51.4970 N.3   100  LEU100     -0.1245
     71  CA        51.9510   32.6900   51.6640 C.3   100  LEU100      0.1561
     72  C         51.8700   33.0540   53.1480 C.2   100  LEU100      0.2260
     73  O         50.9370   32.6540   53.8460 O.2   100  LEU100     -0.2867
     74  CB        50.6490   33.0650   50.9540 C.3   100  LEU100      0.0270
     75  CG        50.5210   34.5220   50.5100 C.3   100  LEU100      0.0019
     76  CD1       51.4200   34.7800   49.3100 C.3   100  LEU100      0.0001
     77  CD2       49.0770   34.8570   50.1770 C.3   100  LEU100      0.0001
     78  N         50.5280   39.3440   53.2950 N.3   103  TYR103     -0.1241
     79  CA        49.8810   40.0320   52.1760 C.3   103  TYR103      0.1605
     80  C         49.3200   41.3810   52.6250 C.2   103  TYR103      0.2264
     81  O         48.5020   41.4470   53.5400 O.2   103  TYR103     -0.2867
     82  CB        48.7560   39.1800   51.5820 C.3   103  TYR103      0.0534
     83  CG        48.3710   39.5920   50.1760 C.ar  103  TYR103     -0.0201
     84  CD1       47.4550   40.6170   49.9500 C.ar  103  TYR103     -0.0009
     85  CD2       48.9360   38.9650   49.0710 C.ar  103  TYR103     -0.0009
     86  CE1       47.1110   41.0010   48.6640 C.ar  103  TYR103      0.0417
     87  CE2       48.5960   39.3420   47.7780 C.ar  103  TYR103      0.0417
     88  CZ        47.6850   40.3610   47.5810 C.ar  103  TYR103      0.1957
     89  OH        47.3510   40.7400   46.2980 O.3   103  TYR103     -0.2866
     90  N         50.7380   46.8290   46.4840 N.3   120  PHE120     -0.1241
     91  CA        50.5420   45.4770   46.9880 C.3   120  PHE120      0.1605
     92  C         51.8940   44.9150   47.4090 C.2   120  PHE120      0.2264
     93  O         52.8920   45.1290   46.7180 O.2   120  PHE120     -0.2867
     94  CB        49.9720   44.5720   45.8970 C.3   120  PHE120      0.0534
     95  CG        48.6050   44.9610   45.4090 C.ar  120  PHE120     -0.0203
     96  CD1       47.4720   44.3480   45.9210 C.ar  120  PHE120     -0.0042
     97  CD2       48.4520   45.9020   44.4060 C.ar  120  PHE120     -0.0042
     98  CE1       46.2050   44.6840   45.4540 C.ar  120  PHE120     -0.0003
     99  CE2       47.1890   46.2430   43.9350 C.ar  120  PHE120     -0.0003
    100  CZ        46.0670   45.6300   44.4590 C.ar  120  PHE120     -0.0000
    101  N         53.4990   41.1140   49.0650 N.3   122  LYS122     -0.1245
    102  CA        53.3010   39.7500   49.5580 C.3   122  LYS122      0.1561
    103  C         54.6240   39.0390   49.8410 C.2   122  LYS122      0.2260
    104  O         55.6530   39.3620   49.2510 O.2   122  LYS122     -0.2867
    105  CB        52.4530   38.9280   48.5770 C.3   122  LYS122      0.0271
    106  CG        53.1590   38.5290   47.2910 C.3   122  LYS122      0.0035
    107  CD        52.3660   37.4870   46.5100 C.3   122  LYS122      0.0206
    108  CE        53.0390   37.1790   45.1770 C.3   122  LYS122      0.1093
    109  NZ        52.3420   36.0970   44.4230 N.3   122  LYS122     -0.1314
    110  N         55.9560   35.2240   49.6530 N.3   124  SER124     -0.1217
    111  CA        55.6060   33.9150   49.1100 C.3   124  SER124      0.1889
    112  C         56.8690   33.0800   48.9160 C.2   124  SER124      0.2288
    113  O         57.8110   33.5200   48.2600 O.2   124  SER124     -0.2866
    114  CB        54.8710   34.0750   47.7840 C.3   124  SER124      0.2089
    115  OG        54.3990   32.8210   47.3210 O.3   124  SER124     -0.2183
    116  N         54.1190   45.1570   44.0430 N.3   131  LYS131     -0.1245
    117  CA        53.6580   45.7070   42.7810 C.3   131  LYS131      0.1561
    118  C         52.8220   46.9540   43.0130 C.2   131  LYS131      0.2260
    119  O         52.1560   47.0880   44.0340 O.2   131  LYS131     -0.2867
    120  CB        52.8750   44.6670   41.9600 C.3   131  LYS131      0.0271
    121  CG        51.5280   44.2540   42.5290 C.3   131  LYS131      0.0035
    122  CD        50.7860   43.3260   41.5800 C.3   131  LYS131      0.0206
    123  CE        49.3840   43.0150   42.0930 C.3   131  LYS131      0.1093
    124  NZ        48.7280   41.9410   41.2850 N.3   131  LYS131     -0.1314
@<TRIPOS>BOND
     1     1     2    1
     2    17    18    2
     3    17    16    1
     4    16    19    1
     5    16    15    1
     6     2     3    1
     7     2     5    1
     8    19    20    1
     9    21    22    1
    10     6     5    1
    11     4     3    2
    12     5     7    1
    13    25    22    1
    14    22    23    1
    15   124   123    1
    16   122   123    1
    17   122   121    1
    18    24    23    2
    19    23    26   am
    20   120   121    1
    21   120   117    1
    22    33    31    1
    23   117   118    1
    24   117   116    1
    25    26    27    1
    26   118   119    2
    27    31    30    1
    28    99    97   ar
    29    99   100   ar
    30    27    30    1
    31    27    28    1
    32    10    11    2
    33    10     9    1
    34    30    32    1
    35    97    95   ar
    36   109   108    1
    37    13    12    1
    38   100    98   ar
    39   108   107    1
    40     9    12    1
    41     9     8    1
    42    28    29    2
    43    28    34   am
    44    95    94    1
    45    95    96   ar
    46    98    96   ar
    47    12    14    1
    48    94    91    1
    49    34    35    1
    50    89    88    1
    51    90    91    1
    52   107   106    1
    53    93    92    2
    54    91    92    1
    55    38    35    1
    56    49    47   ar
    57    49    48   ar
    58   106   105    1
    59   115   114    1
    60    35    36    1
    61    47    45   ar
    62    88    87   ar
    63    88    86   ar
    64    37    36    2
    65    87    85   ar
    66   114   111    1
    67    67    65   ar
    68    67    68   ar
    69    48    46   ar
    70   113   112    2
    71    65    63   ar
    72    45    44   ar
    73   105   102    1
    74    86    84   ar
    75    69    68    1
    76   112   111    1
    77    68    66   ar
    78   101   102    1
    79    85    83   ar
    80   111   110    1
    81    46    44   ar
    82   104   103    2
    83    76    75    1
    84    44    43    1
    85   102   103    1
    86    63    62    1
    87    63    64   ar
    88    56    55    1
    89    84    83   ar
    90    62    59    1
    91    83    82    1
    92    77    75    1
    93    59    60    1
    94    59    58    1
    95    57    55    1
    96    66    64   ar
    97    75    74    1
    98    43    40    1
    99    60    61    2
   100    55    54    1
   101    74    71    1
   102    39    40    1
   103    70    71    1
   104    40    41    1
   105    82    79    1
   106    71    72    1
   107    54    51    1
   108    79    80    1
   109    79    78    1
   110    80    81    2
   111    42    41    2
   112    51    50    1
   113    51    52    1
   114    72    73    2
   115    52    53    2
