@<TRIPOS>MOLECULE
tmp/3by8A00.pdb
 109 106 0 0 0
SMALL
GASTEIGER

@<TRIPOS>ATOM
      1  N         11.6000   36.0750   11.1340 N.3    52  PHE52      -0.1241
      2  CA        10.4950   35.2040   10.7950 C.3    52  PHE52       0.1605
      3  C         10.4810   34.8520    9.3130 C.2    52  PHE52       0.2264
      4  O         10.9850   35.5870    8.4940 O.2    52  PHE52      -0.2867
      5  CB         9.1450   35.8730   11.1260 C.3    52  PHE52       0.0534
      6  CG         8.7550   37.0260   10.2020 C.ar   52  PHE52      -0.0203
      7  CD1        8.1810   36.7930    8.9440 C.ar   52  PHE52      -0.0042
      8  CD2        8.8910   38.3520   10.6340 C.ar   52  PHE52      -0.0042
      9  CE1        7.7480   37.8670    8.1390 C.ar   52  PHE52      -0.0003
     10  CE2        8.4520   39.4340    9.8260 C.ar   52  PHE52      -0.0003
     11  CZ         7.8790   39.1890    8.5810 C.ar   52  PHE52      -0.0000
     12  N          7.4030   33.5370    7.0090 N.3    54  VAL54      -0.1245
     13  CA         5.9920   33.2450    6.9370 C.3    54  VAL54       0.1561
     14  C          5.5220   33.0250    5.4890 C.2    54  VAL54       0.2260
     15  O          5.5490   33.9290    4.6720 O.2    54  VAL54      -0.2867
     16  CB         5.2000   34.4280    7.5550 C.3    54  VAL54       0.0252
     17  CG1        3.6980   34.3140    7.2680 C.3    54  VAL54       0.0019
     18  CG2        5.4570   34.4560    9.0570 C.3    54  VAL54       0.0019
     19  N         -1.5540   32.0620    6.8240 N.3    62  ARG62      -0.1245
     20  CA        -0.2110   31.5910    7.1250 C.3    62  ARG62       0.1563
     21  C         -0.0040   30.0940    7.1620 C.2    62  ARG62       0.2260
     22  O         -0.8370   29.3660    7.7260 O.2    62  ARG62      -0.2867
     23  CB         0.2520   32.1200    8.4820 C.3    62  ARG62       0.0307
     24  CG         0.1840   33.6230    8.6790 C.3    62  ARG62       0.0489
     25  CD         0.9470   33.9190    9.9360 C.3    62  ARG62       0.2205
     26  NE         0.7830   35.2880   10.4240 N.pl3  62  ARG62      -0.0865
     27  CZ        -0.2760   35.7210   11.1070 C.cat  62  ARG62       0.5346
     28  NH1       -1.2960   34.9040   11.3780 N.pl3  62  ARG62       0.1354
     29  NH2       -0.3090   36.9610   11.5790 N.pl3  62  ARG62       0.1354
     30  N          5.0150   30.3580   10.9540 N.3    65  HIS65      -0.1241
     31  CA         5.2150   31.5420   11.7960 C.3    65  HIS65       0.1621
     32  C          5.9990   31.0900   13.0160 C.2    65  HIS65       0.2264
     33  O          5.8240   29.9610   13.4540 O.2    65  HIS65      -0.2867
     34  CB         3.8850   32.1030   12.2910 C.3    65  HIS65       0.0745
     35  CG         3.9840   33.4780   12.8770 C.ar   65  HIS65       0.0817
     36  ND1        4.3710   33.7270   14.1850 N.ar   65  HIS65      -0.2268
     37  CD2        3.7120   34.6860   12.3290 C.ar   65  HIS65       0.1154
     38  CE1        4.3360   35.0330   14.4100 C.ar   65  HIS65       0.1986
     39  NE2        3.9390   35.6330   13.2960 N.ar   65  HIS65      -0.2212
     40  N         -2.3240   36.8700    7.5710 N.3    75  PHE75      -0.1227
     41  CA        -1.1070   37.6520    7.7540 C.3    75  PHE75       0.1736
     42  C         -1.4650   39.0550    8.2700 C.2    75  PHE75       0.2595
     43  O         -2.4930   39.6180    7.8830 O.2    75  PHE75      -0.2718
     44  CB        -0.4220   37.7700    6.4000 C.3    75  PHE75       0.0547
     45  CG         0.9400   38.4170    6.4610 C.ar   75  PHE75      -0.0202
     46  CD1        1.0960   39.7890    6.3080 C.ar   75  PHE75      -0.0042
     47  CD2        2.0800   37.6410    6.7130 C.ar   75  PHE75      -0.0042
     48  CE1        2.3430   40.3870    6.3980 C.ar   75  PHE75      -0.0003
     49  CE2        3.3450   38.2330    6.8080 C.ar   75  PHE75      -0.0003
     50  CZ         3.4890   39.5880    6.6550 C.ar   75  PHE75      -0.0000
     51  N         -0.6290   39.6080    9.1380 N.am   76  LYS76      -0.1980
     52  CA        -0.8440   40.9560    9.6390 C.3    76  LYS76       0.1596
     53  C          0.2080   41.8880    9.0460 C.2    76  LYS76       0.2287
     54  O          1.3970   41.7050    9.2720 O.2    76  LYS76      -0.2864
     55  CB        -0.7690   41.0050   11.1720 C.3    76  LYS76       0.0298
     56  CG        -0.9490   42.4290   11.6890 C.3    76  LYS76       0.0038
     57  CD        -0.7520   42.5480   13.1880 C.3    76  LYS76       0.0206
     58  CE        -1.9920   42.1600   13.9510 C.3    76  LYS76       0.1093
     59  NZ        -1.8020   42.4480   15.4080 N.3    76  LYS76      -0.1314
     60  N          5.2650   45.6860   11.3730 N.3    94  ARG94      -0.1231
     61  CA         5.2180   44.6200   12.3640 C.3    94  ARG94       0.1694
     62  C          3.8440   44.0110   12.3800 C.2    94  ARG94       0.2593
     63  O          2.8550   44.6650   12.0300 O.2    94  ARG94      -0.2718
     64  CB         5.5830   45.1240   13.7550 C.3    94  ARG94       0.0321
     65  CG         4.6230   46.0850   14.3630 C.3    94  ARG94       0.0489
     66  CD         4.9060   46.1870   15.8600 C.3    94  ARG94       0.2205
     67  NE         4.3340   45.0300   16.5220 N.pl3  94  ARG94      -0.0865
     68  CZ         4.7030   44.5620   17.7030 C.cat  94  ARG94       0.5346
     69  NH1        5.6730   45.1550   18.3930 N.pl3  94  ARG94       0.1354
     70  NH2        4.1010   43.4800   18.1820 N.pl3  94  ARG94       0.1354
     71  N          3.8150   42.7240   12.7020 N.am   95  GLY95      -0.1942
     72  CA         2.5870   41.9760   12.8490 C.3    95  GLY95       0.2014
     73  C          2.4800   41.7350   14.3480 C.2    95  GLY95       0.2639
     74  O          2.1620   42.6640   15.0990 O.2    95  GLY95      -0.2714
     75  N          2.7870   40.5200   14.7960 N.am   96  PHE96      -0.1959
     76  CA         2.7820   40.1930   16.2230 C.3    96  PHE96       0.1771
     77  C          4.1820   40.1150   16.8270 C.2    96  PHE96       0.2619
     78  O          4.3350   40.1050   18.0590 O.2    96  PHE96      -0.2715
     79  CB         2.0320   38.8830   16.4470 C.3    96  PHE96       0.0574
     80  CG         0.5940   38.9980   16.1340 C.ar   96  PHE96      -0.0200
     81  CD1       -0.2660   39.6230   17.0360 C.ar   96  PHE96      -0.0042
     82  CD2        0.0940   38.5990   14.9000 C.ar   96  PHE96      -0.0042
     83  CE1       -1.5970   39.8570   16.7120 C.ar   96  PHE96      -0.0003
     84  CE2       -1.2420   38.8280   14.5630 C.ar   96  PHE96      -0.0003
     85  CZ        -2.0890   39.4610   15.4740 C.ar   96  PHE96      -0.0000
     86  N          5.2000   40.0470   15.9750 N.am   97  LEU97      -0.1963
     87  CA         6.5790   39.9730   16.4360 C.3    97  LEU97       0.1728
     88  C          7.1620   41.3730   16.5330 C.2    97  LEU97       0.2616
     89  O          6.4190   42.3570   16.3960 O.2    97  LEU97      -0.2715
     90  CB         7.3950   39.1080   15.4670 C.3    97  LEU97       0.0311
     91  CG         6.8160   37.6980   15.2780 C.3    97  LEU97       0.0022
     92  CD1        7.6270   36.9470   14.2240 C.3    97  LEU97       0.0001
     93  CD2        6.8330   36.9300   16.6090 C.3    97  LEU97       0.0001
     94  N          8.4670   41.4900   16.7530 N.am   98  ALA98      -0.1977
     95  CA         9.0920   42.7990   16.8530 C.3    98  ALA98       0.1597
     96  C          9.0320   43.5280   15.5080 C.2    98  ALA98       0.2287
     97  O          8.8100   42.9250   14.4410 O.2    98  ALA98      -0.2864
     98  CB        10.5430   42.6500   17.2740 C.3    98  ALA98       0.0319
     99  N         11.1080   43.9460    6.4210 N.3   102  ARG102     -0.1245
    100  CA        10.4240   42.7930    5.8520 C.3   102  ARG102      0.1563
    101  C         10.4510   42.7740    4.3460 C.2   102  ARG102      0.2260
    102  O         10.3200   43.7910    3.6960 O.2   102  ARG102     -0.2867
    103  CB         8.9730   42.8530    6.3520 C.3   102  ARG102      0.0307
    104  CG         8.8780   42.8010    7.8740 C.3   102  ARG102      0.0489
    105  CD         7.7630   43.7010    8.4670 C.3   102  ARG102      0.2205
    106  NE         6.4100   43.4280    7.9580 N.pl3 102  ARG102     -0.0865
    107  CZ         5.4960   42.7070    8.5860 C.cat 102  ARG102      0.5346
    108  NH1        5.7360   42.1320    9.7620 N.pl3 102  ARG102      0.1354
    109  NH2        4.2740   42.6250    8.0610 N.pl3 102  ARG102      0.1354
@<TRIPOS>BOND
     1   102   101    2
     2   101   100    1
     3    15    14    2
     4    14    13    1
     5   100   103    1
     6   100    99    1
     7    46    48   ar
     8    46    45   ar
     9   103   104    1
    10    48    50   ar
    11    44    45    1
    12    44    41    1
    13    45    47   ar
    14    50    49   ar
    15    47    49   ar
    16    19    20    1
    17    13    12    1
    18    13    16    1
    19    20    21    1
    20    20    23    1
    21    21    22    2
    22    17    16    1
    23    16    18    1
    24    40    41    1
    25    41    42    1
    26   104   105    1
    27    43    42    2
    28   106   105    1
    29   106   107    2
    30   109   107    1
    31     9    11   ar
    32     9     7   ar
    33    42    51   am
    34    23    24    1
    35     4     3    2
    36    11    10   ar
    37   107   108    1
    38    24    25    1
    39     7     6   ar
    40    53    54    2
    41    53    52    1
    42    51    52    1
    43     3     2    1
    44    52    55    1
    45    10     8   ar
    46    25    26    1
    47     6     8   ar
    48     6     5    1
    49    26    27    2
    50     2     5    1
    51     2     1    1
    52    30    31    1
    53    27    28    1
    54    27    29    1
    55    55    56    1
    56    60    61    1
    57    56    57    1
    58    31    34    1
    59    31    32    1
    60    63    62    2
    61    34    35    1
    62    37    35   ar
    63    37    39   ar
    64    61    62    1
    65    61    64    1
    66    62    71   am
    67    71    72    1
    68    72    73    1
    69    35    36   ar
    70    32    33    2
    71    57    58    1
    72    39    38   ar
    73    64    65    1
    74    58    59    1
    75    36    38   ar
    76    92    91    1
    77    73    75   am
    78    73    74    2
    79    65    66    1
    80    97    96    2
    81    84    82   ar
    82    84    85   ar
    83    75    76    1
    84    82    80   ar
    85    91    90    1
    86    91    93    1
    87    90    87    1
    88    85    83   ar
    89    96    95    1
    90    66    67    1
    91    86    87    1
    92    86    77   am
    93    80    79    1
    94    80    81   ar
    95    76    79    1
    96    76    77    1
    97    89    88    2
    98    87    88    1
    99    67    68    2
   100    88    94   am
   101    83    81   ar
   102    94    95    1
   103    77    78    2
   104    95    98    1
   105    68    70    1
   106    68    69    1
