@<TRIPOS>MOLECULE
tmp/3by9B00.pdb
 101 98 0 0 0
SMALL
GASTEIGER

@<TRIPOS>ATOM
      1  N         51.9550   33.4580   19.6580 N.3    74  TYR74      -0.1241
      2  CA        52.1670   33.0500   21.0480 C.3    74  TYR74       0.1605
      3  C         53.5960   33.2460   21.4840 C.2    74  TYR74       0.2264
      4  O         54.5400   33.2110   20.6680 O.2    74  TYR74      -0.2867
      5  CB        51.7500   31.5790   21.2640 C.3    74  TYR74       0.0534
      6  CG        52.2880   30.5550   20.2530 C.ar   74  TYR74      -0.0201
      7  CD1       53.1770   29.5690   20.6560 C.ar   74  TYR74      -0.0009
      8  CD2       51.8460   30.5580   18.9060 C.ar   74  TYR74      -0.0009
      9  CE1       53.6380   28.5700   19.7290 C.ar   74  TYR74       0.0417
     10  CE2       52.2970   29.5860   17.9930 C.ar   74  TYR74       0.0417
     11  CZ        53.1800   28.6190   18.4110 C.ar   74  TYR74       0.1957
     12  OH        53.6550   27.7020   17.5000 O.3    74  TYR74      -0.2866
     13  N         47.3110   27.0240   23.6950 N.3    94  PHE94      -0.1241
     14  CA        48.6920   26.5830   23.7470 C.3    94  PHE94       0.1605
     15  C         49.2950   26.8700   25.1070 C.2    94  PHE94       0.2264
     16  O         50.4210   26.4520   25.3810 O.2    94  PHE94      -0.2867
     17  CB        49.5590   27.3070   22.6740 C.3    94  PHE94       0.0534
     18  CG        49.1890   26.9860   21.2410 C.ar   94  PHE94      -0.0203
     19  CD1       48.1610   26.0880   20.9080 C.ar   94  PHE94      -0.0042
     20  CD2       49.8640   27.6480   20.2100 C.ar   94  PHE94      -0.0042
     21  CE1       47.8110   25.8790   19.5540 C.ar   94  PHE94      -0.0003
     22  CE2       49.5220   27.4370   18.8380 C.ar   94  PHE94      -0.0003
     23  CZ        48.5150   26.5790   18.5110 C.ar   94  PHE94      -0.0000
     24  N         57.1640   23.6160   23.7930 N.3    99  PHE99      -0.1241
     25  CA        57.5710   23.3850   22.4160 C.3    99  PHE99       0.1605
     26  C         59.0850   23.4820   22.1960 C.2    99  PHE99       0.2264
     27  O         59.5490   23.8510   21.0840 O.2    99  PHE99      -0.2867
     28  CB        56.8320   24.4180   21.5220 C.3    99  PHE99       0.0534
     29  CG        55.3290   24.2390   21.5470 C.ar   99  PHE99      -0.0203
     30  CD1       54.7630   23.0620   21.1000 C.ar   99  PHE99      -0.0042
     31  CD2       54.5010   25.2560   22.0320 C.ar   99  PHE99      -0.0042
     32  CE1       53.3550   22.8680   21.1220 C.ar   99  PHE99      -0.0003
     33  CE2       53.0920   25.0960   22.0730 C.ar   99  PHE99      -0.0003
     34  CZ        52.5170   23.8930   21.6170 C.ar   99  PHE99      -0.0000
     35  N         60.5190   21.9090   19.0850 N.3   102  ARG102     -0.1245
     36  CA        60.2690   22.4410   17.7330 C.3   102  ARG102      0.1563
     37  C         61.4330   23.3240   17.2970 C.2   102  ARG102      0.2260
     38  O         61.8940   24.1570   18.0510 O.2   102  ARG102     -0.2867
     39  CB        58.9950   23.2950   17.7140 C.3   102  ARG102      0.0307
     40  CG        57.6810   22.5210   17.7070 C.3   102  ARG102      0.0489
     41  CD        57.4210   21.8480   16.3320 C.3   102  ARG102      0.2205
     42  NE        55.9940   21.6050   16.1560 N.pl3 102  ARG102     -0.0865
     43  CZ        55.4740   20.6210   15.4160 C.cat 102  ARG102      0.5346
     44  NH1       56.2810   19.7710   14.7470 N.pl3 102  ARG102      0.1354
     45  NH2       54.1480   20.4730   15.3890 N.pl3 102  ARG102      0.1354
     46  N         61.5230   25.8900   15.3610 N.3   104  TYR104     -0.1241
     47  CA        61.3020   27.3360   15.4330 C.3   104  TYR104      0.1605
     48  C         61.5910   27.8650   16.8370 C.2   104  TYR104      0.2264
     49  O         61.9310   29.0400   16.9860 O.2   104  TYR104     -0.2867
     50  CB        59.8950   27.7310   14.9500 C.3   104  TYR104      0.0534
     51  CG        58.7720   27.1450   15.7790 C.ar  104  TYR104     -0.0201
     52  CD1       58.4860   27.6480   17.0600 C.ar  104  TYR104     -0.0009
     53  CD2       57.9480   26.1380   15.2490 C.ar  104  TYR104     -0.0009
     54  CE1       57.3830   27.1630   17.7690 C.ar  104  TYR104      0.0417
     55  CE2       56.8560   25.6510   15.9540 C.ar  104  TYR104      0.0417
     56  CZ        56.5780   26.1770   17.2280 C.ar  104  TYR104      0.1957
     57  OH        55.4940   25.7260   17.9750 O.3   104  TYR104     -0.2866
     58  N         50.4250   21.1080   13.0880 N.3   120  GLY120     -0.1210
     59  CA        50.3040   21.5510   14.4790 C.3   120  GLY120      0.1956
     60  C         49.9090   20.4450   15.4470 C.2   120  GLY120      0.2613
     61  O         48.9570   19.7010   15.1750 O.2   120  GLY120     -0.2717
     62  N         50.6030   20.3690   16.5830 N.am  121  SER121     -0.1938
     63  CA        50.3220   19.2930   17.5440 C.3   121  SER121      0.2055
     64  C         49.0860   19.4500   18.4090 C.2   121  SER121      0.2644
     65  O         48.4290   18.4680   18.7840 O.2   121  SER121     -0.2714
     66  CB        51.5340   19.0910   18.4300 C.3   121  SER121      0.2130
     67  OG        51.7750   20.2570   19.2490 O.3   121  SER121     -0.2179
     68  N         48.7600   20.6900   18.7310 N.am  122  THR122     -0.1936
     69  CA        47.6220   20.9710   19.6060 C.3   122  THR122      0.2028
     70  C         46.4010   21.2080   18.7740 C.2   122  THR122      0.2642
     71  O         45.3220   20.6520   19.0250 O.2   122  THR122     -0.2714
     72  CB        47.9390   22.2180   20.5020 C.3   122  THR122      0.1808
     73  OG1       49.1640   21.9840   21.2230 O.3   122  THR122     -0.2208
     74  CG2       46.8160   22.4000   21.5430 C.3   122  THR122      0.0379
     75  N         46.5820   22.0370   17.7560 N.am  123  SER123     -0.1949
     76  CA        45.5290   22.4050   16.8400 C.3   123  SER123      0.1924
     77  C         45.1140   21.3270   15.8530 C.2   123  SER123      0.2314
     78  O         43.9540   21.2790   15.4760 O.2   123  SER123     -0.2863
     79  CB        45.9830   23.6080   16.0010 C.3   123  SER123      0.2116
     80  OG        47.0950   23.1940   15.2160 O.3   123  SER123     -0.2180
     81  N         55.3970   28.5980   10.3650 N.3   129  TYR129     -0.1241
     82  CA        55.7300   29.3100   11.6090 C.3   129  TYR129      0.1605
     83  C         56.9300   30.2290   11.4390 C.2   129  TYR129      0.2264
     84  O         57.9560   29.8360   10.8980 O.2   129  TYR129     -0.2867
     85  CB        56.0940   28.2790   12.6980 C.3   129  TYR129      0.0534
     86  CG        54.9960   27.2910   13.0210 C.ar  129  TYR129     -0.0201
     87  CD1       54.2820   27.3720   14.2260 C.ar  129  TYR129     -0.0009
     88  CD2       54.7020   26.2210   12.1550 C.ar  129  TYR129     -0.0009
     89  CE1       53.3210   26.4130   14.5740 C.ar  129  TYR129      0.0417
     90  CE2       53.7320   25.2610   12.5070 C.ar  129  TYR129      0.0417
     91  CZ        53.0550   25.3520   13.7130 C.ar  129  TYR129      0.1957
     92  OH        52.1020   24.3820   14.0890 O.3   129  TYR129     -0.2866
     93  N         52.0110   31.8320   13.6680 N.3   147  LYS147     -0.1245
     94  CA        51.7120   30.6560   12.8670 C.3   147  LYS147      0.1561
     95  C         50.6990   31.0730   11.8160 C.2   147  LYS147      0.2260
     96  O         49.6200   31.5410   12.1660 O.2   147  LYS147     -0.2867
     97  CB        51.1090   29.5710   13.7610 C.3   147  LYS147      0.0271
     98  CG        50.7090   28.3210   12.9380 C.3   147  LYS147      0.0035
     99  CD        49.9720   27.3480   13.8200 C.3   147  LYS147      0.0206
    100  CE        49.4730   26.1570   12.9720 C.3   147  LYS147      0.1093
    101  NZ        48.7830   25.1900   13.8830 N.3   147  LYS147     -0.1314
@<TRIPOS>BOND
     1    81    82    1
     2    84    83    2
     3    83    82    1
     4    82    85    1
     5    95    96    2
     6    95    94    1
     7    88    90   ar
     8    88    86   ar
     9    90    91   ar
    10    85    86    1
    11    94    93    1
    12    94    97    1
    13    98    97    1
    14    98    99    1
    15   100    99    1
    16   100   101    1
    17    86    87   ar
    18    58    59    1
    19    91    92    1
    20    91    89   ar
    21    87    89   ar
    22    59    60    1
    23    44    43    1
    24    50    47    1
    25    50    51    1
    26    61    60    2
    27    80    79    1
    28    53    51   ar
    29    53    55   ar
    30    46    47    1
    31    45    43    1
    32    43    42    2
    33    47    48    1
    34    60    62   am
    35    78    77    2
    36    51    52   ar
    37    77    76    1
    38    55    56   ar
    39    79    76    1
    40    42    41    1
    41    41    40    1
    42    62    63    1
    43    48    49    2
    44    76    75    1
    45    52    54   ar
    46    56    54   ar
    47    56    57    1
    48    37    36    1
    49    37    38    2
    50    12    11    1
    51    63    64    1
    52    63    66    1
    53    40    39    1
    54    39    36    1
    55    36    35    1
    56    75    70   am
    57    10    11   ar
    58    10     8   ar
    59    64    68   am
    60    64    65    2
    61    11     9   ar
    62    66    67    1
    63    23    22   ar
    64    23    21   ar
    65    68    69    1
    66    70    71    2
    67    70    69    1
    68    22    20   ar
    69     8     6   ar
    70    21    19   ar
    71    69    72    1
    72     1     2    1
    73     9     7   ar
    74    20    18   ar
    75     6     7   ar
    76     6     5    1
    77    72    73    1
    78    72    74    1
    79     4     3    2
    80    19    18   ar
    81     2     5    1
    82     2     3    1
    83    27    26    2
    84    30    32   ar
    85    30    29   ar
    86    32    34   ar
    87    18    17    1
    88    28    29    1
    89    28    25    1
    90    29    31   ar
    91    34    33   ar
    92    31    33   ar
    93    26    25    1
    94    25    24    1
    95    17    14    1
    96    13    14    1
    97    14    15    1
    98    15    16    2
