@<TRIPOS>MOLECULE
tmp/3bymA00.pdb
 182 170 0 0 0
SMALL
GASTEIGER

@<TRIPOS>ATOM
      1  N         31.7950   29.4700   89.6080 N.3    20  GLU20      -0.1245
      2  CA        32.5380   30.7270   89.5890 C.3    20  GLU20       0.1567
      3  C         31.6210   31.9340   89.8220 C.2    20  GLU20       0.2260
      4  O         30.5330   32.0080   89.2470 O.2    20  GLU20      -0.2867
      5  CB        33.2520   30.8670   88.2350 C.3    20  GLU20       0.0388
      6  CG        34.1800   32.0700   88.1250 C.3    20  GLU20       0.1160
      7  CD        34.8230   32.2160   86.7460 C.2    20  GLU20       0.3649
      8  OE1       35.3640   31.2170   86.2240 O.co2  20  GLU20      -0.2457
      9  OE2       34.8100   33.3320   86.1810 O.co2  20  GLU20      -0.2457
     10  N         30.3020   35.6070   89.3070 N.3    22  LEU22      -0.1231
     11  CA        30.3600   36.5970   88.2480 C.3    22  LEU22       0.1693
     12  C         30.0860   37.9870   88.7970 C.2    22  LEU22       0.2592
     13  O         30.4380   38.9850   88.1710 O.2    22  LEU22      -0.2718
     14  CB        29.3260   36.2860   87.1690 C.3    22  LEU22       0.0284
     15  CG        29.2940   34.8540   86.6500 C.3    22  LEU22       0.0019
     16  CD1       28.1140   34.7020   85.7240 C.3    22  LEU22       0.0001
     17  CD2       30.5930   34.5060   85.9540 C.3    22  LEU22       0.0001
     18  N         29.4470   38.0490   89.9610 N.am   23  GLY23      -0.1957
     19  CA        29.1370   39.3340   90.5600 C.3    23  GLY23       0.1869
     20  C         28.7080   39.1830   92.0050 C.2    23  GLY23       0.2309
     21  O         28.1150   38.1750   92.3810 O.2    23  GLY23      -0.2863
     22  N         25.8680   36.4480   91.9410 N.3    30  VAL30      -0.1245
     23  CA        25.5080   35.7950   90.7020 C.3    30  VAL30       0.1561
     24  C         26.6980   34.9180   90.3730 C.2    30  VAL30       0.2260
     25  O         27.8310   35.3880   90.3000 O.2    30  VAL30      -0.2867
     26  CB        25.2550   36.7950   89.5650 C.3    30  VAL30       0.0252
     27  CG1       24.8980   36.0350   88.2970 C.3    30  VAL30       0.0019
     28  CG2       24.1160   37.7270   89.9420 C.3    30  VAL30       0.0019
     29  N         23.4800   30.3790   84.9600 N.3    42  ALA42      -0.1245
     30  CA        23.8400   31.5360   85.7750 C.3    42  ALA42       0.1562
     31  C         22.9320   31.4300   86.9920 C.2    42  ALA42       0.2260
     32  O         21.7350   31.2120   86.8440 O.2    42  ALA42      -0.2867
     33  CB        23.5570   32.8330   85.0250 C.3    42  ALA42       0.0290
     34  N         21.4900   33.2820   90.4090 N.3    44  LYS44      -0.1245
     35  CA        21.3380   34.4930   91.1890 C.3    44  LYS44       0.1561
     36  C         20.8320   34.0800   92.5760 C.2    44  LYS44       0.2260
     37  O         19.7830   33.4420   92.7050 O.2    44  LYS44      -0.2867
     38  CB        20.3490   35.4110   90.4740 C.3    44  LYS44       0.0271
     39  CG        20.3210   36.8410   90.9270 C.3    44  LYS44       0.0035
     40  CD        19.3020   37.5910   90.0860 C.3    44  LYS44       0.0206
     41  CE        19.3120   39.0770   90.3760 C.3    44  LYS44       0.1093
     42  NZ        18.3040   39.8170   89.5700 N.3    44  LYS44      -0.1314
     43  N         10.8410   39.0910   89.7660 N.3    59  GLU59      -0.1245
     44  CA        11.5180   39.1870   88.4790 C.3    59  GLU59       0.1567
     45  C         11.4150   37.8410   87.7540 C.2    59  GLU59       0.2260
     46  O         11.2020   37.7810   86.5440 O.2    59  GLU59      -0.2867
     47  CB        12.9820   39.5800   88.6980 C.3    59  GLU59       0.0388
     48  CG        13.8370   39.4950   87.4490 C.3    59  GLU59       0.1160
     49  CD        15.3060   39.8310   87.7040 C.2    59  GLU59       0.3649
     50  OE1       15.8510   39.4140   88.7510 O.co2  59  GLU59      -0.2457
     51  OE2       15.9200   40.4950   86.8500 O.co2  59  GLU59      -0.2457
     52  N          9.6060   36.8520   84.1190 N.3    63  MET63      -0.1245
     53  CA        10.3640   36.1450   83.0860 C.3    63  MET63       0.1570
     54  C          9.6450   34.8780   82.6210 C.2    63  MET63       0.2261
     55  O          9.9420   34.3350   81.5620 O.2    63  MET63      -0.2867
     56  CB        11.7640   35.8020   83.6020 C.3    63  MET63       0.0387
     57  CG        12.6640   37.0270   83.8090 C.3    63  MET63       0.0595
     58  SD        14.2900   36.6490   84.5270 S.3    63  MET63      -0.1393
     59  CE        15.1240   35.8660   83.1250 C.3    63  MET63       0.0692
     60  N         17.2090   36.8470   77.7670 N.3    72  VAL72      -0.1245
     61  CA        17.8330   35.8280   78.6150 C.3    72  VAL72       0.1561
     62  C         16.6980   35.0370   79.2430 C.2    72  VAL72       0.2260
     63  O         15.8700   35.5900   79.9740 O.2    72  VAL72      -0.2867
     64  CB        18.7010   36.4360   79.7470 C.3    72  VAL72       0.0252
     65  CG1       19.1230   35.3400   80.7250 C.3    72  VAL72       0.0019
     66  CG2       19.9340   37.1160   79.1690 C.3    72  VAL72       0.0019
     67  N         17.5510   32.1180   91.4700 N.3    85  ILE85      -0.1245
     68  CA        16.8650   32.3140   90.2040 C.3    85  ILE85       0.1561
     69  C         17.9450   31.8230   89.2530 C.2    85  ILE85       0.2260
     70  O         19.0470   32.3720   89.2420 O.2    85  ILE85      -0.2867
     71  CB        16.5680   33.7870   89.8940 C.3    85  ILE85       0.0252
     72  CG1       15.5110   34.3240   90.8670 C.3    85  ILE85       0.0019
     73  CG2       16.1020   33.9130   88.4430 C.3    85  ILE85       0.0019
     74  CD1       15.0470   35.7470   90.5590 C.3    85  ILE85       0.0001
     75  N         19.2240   31.1000   85.3640 N.3    87  THR87      -0.1203
     76  CA        18.9360   31.5030   83.9970 C.3    87  THR87       0.1994
     77  C         19.9260   30.9860   82.9690 C.2    87  THR87       0.2618
     78  O         20.9500   30.3950   83.3000 O.2    87  THR87      -0.2717
     79  CB        18.9130   33.0340   83.8520 C.3    87  THR87       0.1784
     80  OG1       20.2490   33.5410   83.9760 O.3    87  THR87      -0.2211
     81  CG2       18.0350   33.6650   84.9150 C.3    87  THR87       0.0376
     82  N         19.5780   31.2210   81.7130 N.am   88  GLU88      -0.1965
     83  CA        20.3930   30.8630   80.5700 C.3    88  GLU88       0.1733
     84  C         21.7380   31.5910   80.7130 C.2    88  GLU88       0.2616
     85  O         21.7820   32.7780   81.0430 O.2    88  GLU88      -0.2715
     86  CB        19.6460   31.3030   79.3020 C.3    88  GLU88       0.0429
     87  CG        20.4610   31.4240   78.0330 C.3    88  GLU88       0.1163
     88  CD        19.6050   31.8580   76.8420 C.2    88  GLU88       0.3649
     89  OE1       18.7670   32.7640   77.0030 O.co2  88  GLU88      -0.2457
     90  OE2       19.7740   31.2980   75.7410 O.co2  88  GLU88      -0.2457
     91  N         22.8320   30.8750   80.4790 N.am   89  TYR89      -0.1960
     92  CA        24.1560   31.4680   80.6040 C.3    89  TYR89       0.1771
     93  C         24.6710   32.1110   79.3150 C.2    89  TYR89       0.2619
     94  O         24.5650   31.5340   78.2380 O.2    89  TYR89      -0.2715
     95  CB        25.1510   30.4150   81.0730 C.3    89  TYR89       0.0574
     96  CG        26.5130   30.9850   81.3600 C.ar   89  TYR89      -0.0198
     97  CD1       26.6970   31.8960   82.3960 C.ar   89  TYR89      -0.0009
     98  CD2       27.6170   30.6210   80.5960 C.ar   89  TYR89      -0.0009
     99  CE1       27.9410   32.4260   82.6670 C.ar   89  TYR89       0.0417
    100  CE2       28.8690   31.1490   80.8580 C.ar   89  TYR89       0.0417
    101  CZ        29.0230   32.0460   81.8990 C.ar   89  TYR89       0.1957
    102  OH        30.2660   32.5280   82.2070 O.3    89  TYR89      -0.2866
    103  N         25.2330   33.3090   79.4410 N.am   90  MET90      -0.1963
    104  CA        25.7780   34.0450   78.3020 C.3    90  MET90       0.1736
    105  C         27.2920   34.1170   78.5060 C.2    90  MET90       0.2616
    106  O         27.7880   34.8360   79.3740 O.2    90  MET90      -0.2715
    107  CB        25.1840   35.4510   78.2430 C.3    90  MET90       0.0427
    108  CG        23.6700   35.4950   78.1180 C.3    90  MET90       0.0599
    109  SD        23.0520   34.6010   76.6900 S.3    90  MET90      -0.1393
    110  CE        23.5250   35.6630   75.3680 C.3    90  MET90       0.0692
    111  N         28.0150   33.3590   77.6950 N.am   91  GLU91      -0.1963
    112  CA        29.4640   33.2570   77.7850 C.3    91  GLU91       0.1733
    113  C         30.2920   34.5470   77.7120 C.2    91  GLU91       0.2616
    114  O         31.2480   34.7010   78.4650 O.2    91  GLU91      -0.2715
    115  CB        29.9550   32.2840   76.7140 C.3    91  GLU91       0.0429
    116  CG        31.3950   31.8690   76.8990 C.3    91  GLU91       0.1163
    117  CD        31.6100   31.1220   78.2000 C.2    91  GLU91       0.3649
    118  OE1       31.0170   30.0300   78.3800 O.co2  91  GLU91      -0.2457
    119  OE2       32.3760   31.6320   79.0480 O.co2  91  GLU91      -0.2457
    120  N         29.9420   35.4740   76.8280 N.am   92  ASN92      -0.1958
    121  CA        30.7440   36.6810   76.7010 C.3    92  ASN92       0.1819
    122  C         30.3900   37.8670   77.5910 C.2    92  ASN92       0.2622
    123  O         30.8220   38.9850   77.3400 O.2    92  ASN92      -0.2715
    124  CB        30.7910   37.1110   75.2420 C.3    92  ASN92       0.1195
    125  CG        31.8100   36.3230   74.4460 C.2    92  ASN92       0.2630
    126  OD1       32.9580   36.2180   74.8530 O.2    92  ASN92      -0.2716
    127  ND2       31.3980   35.7720   73.3130 N.am   92  ASN92      -0.0877
    128  N         29.5910   37.6200   78.6200 N.am   93  GLY93      -0.1940
    129  CA        29.2400   38.6690   79.5580 C.3    93  GLY93       0.2014
    130  C         28.3930   39.8140   79.0590 C.2    93  GLY93       0.2639
    131  O         27.6730   39.6740   78.0760 O.2    93  GLY93      -0.2714
    132  N         28.4790   40.9460   79.7570 N.am   94  SER94      -0.1949
    133  CA        27.7130   42.1380   79.4150 C.3    94  SER94       0.1924
    134  C         28.3110   42.8120   78.1910 C.2    94  SER94       0.2314
    135  O         29.5180   42.7490   77.9620 O.2    94  SER94      -0.2863
    136  CB        27.6910   43.1170   80.5950 C.3    94  SER94       0.2116
    137  OG        28.7110   44.0930   80.4960 O.3    94  SER94      -0.2180
    138  N         30.9590   45.4510   78.7510 N.3    97  ASP97      -0.1239
    139  CA        32.2700   44.8670   79.0520 C.3    97  ASP97       0.1674
    140  C         32.9270   44.2400   77.8290 C.2    97  ASP97       0.2266
    141  O         34.1200   44.4350   77.5740 O.2    97  ASP97      -0.2867
    142  CB        32.1600   43.7910   80.1350 C.3    97  ASP97       0.1410
    143  CG        31.9870   44.3670   81.5260 C.2    97  ASP97       0.3668
    144  OD1       32.3720   45.5300   81.7420 O.co2  97  ASP97      -0.2456
    145  OD2       31.4780   43.6500   82.4170 O.co2  97  ASP97      -0.2456
    146  N         25.0000   47.6880   79.8320 N.3   139  ALA139     -0.1245
    147  CA        25.3470   46.8580   80.9800 C.3   139  ALA139      0.1562
    148  C         24.3170   45.7470   81.1760 C.2   139  ALA139      0.2260
    149  O         24.6050   44.7340   81.8100 O.2   139  ALA139     -0.2867
    150  CB        25.4320   47.7230   82.2510 C.3   139  ALA139      0.0290
    151  N         23.4060   40.9970   77.3890 N.3   142  LEU142     -0.1245
    152  CA        24.4280   39.9540   77.4770 C.3   142  LEU142      0.1561
    153  C         24.7880   39.4130   76.0930 C.2   142  LEU142      0.2260
    154  O         23.9500   39.3790   75.1880 O.2   142  LEU142     -0.2867
    155  CB        23.9640   38.8150   78.3950 C.3   142  LEU142      0.0270
    156  CG        23.6830   39.2710   79.8360 C.3   142  LEU142      0.0019
    157  CD1       23.2150   38.1130   80.7050 C.3   142  LEU142      0.0001
    158  CD2       24.9470   39.8900   80.4140 C.3   142  LEU142      0.0001
    159  N         18.6780   41.4110   79.2560 N.3   152  ALA152     -0.1231
    160  CA        18.7860   40.8610   80.6080 C.3   152  ALA152      0.1694
    161  C         18.2400   41.8210   81.6670 C.2   152  ALA152      0.2592
    162  O         17.6970   42.8740   81.3480 O.2   152  ALA152     -0.2718
    163  CB        20.2460   40.5330   80.9190 C.3   152  ALA152      0.0304
    164  N         18.4230   41.4420   82.9280 N.am  153  ASP153     -0.1960
    165  CA        17.9810   42.2070   84.0960 C.3   153  ASP153      0.1840
    166  C         16.5680   42.7670   83.9550 C.2   153  ASP153      0.2622
    167  O         16.3710   43.9000   83.5220 O.2   153  ASP153     -0.2715
    168  CB        18.9510   43.3550   84.4010 C.3   153  ASP153      0.1450
    169  CG        18.7620   43.9200   85.8100 C.2   153  ASP153      0.3671
    170  OD1       17.6260   43.8630   86.3290 O.co2 153  ASP153     -0.2456
    171  OD2       19.7420   44.4330   86.3990 O.co2 153  ASP153     -0.2456
    172  N         15.5850   41.9710   84.3520 N.am  154  PHE154     -0.1974
    173  CA        14.1850   42.3760   84.2540 C.3   154  PHE154      0.1639
    174  C         13.6470   42.8780   85.6010 C.2   154  PHE154      0.2290
    175  O         12.4330   42.9150   85.8420 O.2   154  PHE154     -0.2864
    176  CB        13.3660   41.1830   83.7490 C.3   154  PHE154      0.0560
    177  CG        13.7490   40.7340   82.3610 C.ar  154  PHE154     -0.0200
    178  CD1       13.2640   41.4010   81.2380 C.ar  154  PHE154     -0.0042
    179  CD2       14.6610   39.6990   82.1810 C.ar  154  PHE154     -0.0042
    180  CE1       13.6780   41.0330   79.9580 C.ar  154  PHE154     -0.0003
    181  CE2       15.0810   39.3250   80.9050 C.ar  154  PHE154     -0.0003
    182  CZ        14.5970   39.9930   79.7960 C.ar  154  PHE154     -0.0000
@<TRIPOS>BOND
     1   127   125   am
     2   125   126    2
     3   125   124    1
     4   154   153    2
     5   124   121    1
     6   110   109    1
     7    90    88   ar
     8   153   152    1
     9   109   108    1
    10   121   120    1
    11   121   122    1
    12   115   116    1
    13   115   112    1
    14   120   113   am
    15    88    89   ar
    16    88    87    1
    17   116   117    1
    18   123   122    2
    19   151   152    1
    20   152   155    1
    21   141   140    2
    22   122   128   am
    23   111   112    1
    24   111   105   am
    25   113   112    1
    26   113   114    2
    27    60    61    1
    28   140   139    1
    29   135   134    2
    30    87    86    1
    31   131   130    2
    32   108   107    1
    33   134   133    1
    34   117   118   ar
    35   117   119   ar
    36    94    93    2
    37   107   104    1
    38   104   105    1
    39   104   103    1
    40   155   156    1
    41   105   106    2
    42    61    62    1
    43    61    64    1
    44   128   129    1
    45   138   139    1
    46   139   142    1
    47   130   129    1
    48   130   132   am
    49    66    64    1
    50    62    63    2
    51   159   160    1
    52    86    83    1
    53    93   103   am
    54    93    92    1
    55   133   132    1
    56   133   136    1
    57    64    65    1
    58   182   180   ar
    59   182   181   ar
    60   146   147    1
    61   156   158    1
    62   156   157    1
    63   180   178   ar
    64   142   143    1
    65    91    92    1
    66    91    84   am
    67   137   136    1
    68    83    84    1
    69    83    82    1
    70    98   100   ar
    71    98    96   ar
    72    92    95    1
    73   160   163    1
    74   160   161    1
    75    84    85    2
    76   100   101   ar
    77   181   179   ar
    78   147   148    1
    79   147   150    1
    80    95    96    1
    81   148   149    2
    82   178   177   ar
    83   162   161    2
    84    96    97   ar
    85   143   144   ar
    86   143   145   ar
    87    55    54    2
    88   161   164   am
    89    82    77   am
    90   101   102    1
    91   101    99   ar
    92   179   177   ar
    93   177   176    1
    94    97    99   ar
    95    54    53    1
    96   164   165    1
    97    77    78    2
    98    77    76    1
    99    53    56    1
   100    53    52    1
   101    59    58    1
   102   167   166    2
   103    56    57    1
   104   176   173    1
   105    57    58    1
   106    79    80    1
   107    79    76    1
   108    79    81    1
   109   166   165    1
   110   166   172   am
   111    76    75    1
   112   165   168    1
   113   173   172    1
   114   173   174    1
   115   168   169    1
   116    29    30    1
   117    33    30    1
   118   174   175    2
   119    16    15    1
   120    30    31    1
   121   169   170   ar
   122   169   171   ar
   123    17    15    1
   124     9     7   ar
   125     8     7   ar
   126    46    45    2
   127    15    14    1
   128     7     6    1
   129    32    31    2
   130    51    49   ar
   131    14    11    1
   132    48    49    1
   133    48    47    1
   134    49    50   ar
   135    45    44    1
   136     6     5    1
   137    13    12    2
   138     5     2    1
   139    11    12    1
   140    11    10    1
   141    27    26    1
   142    73    71    1
   143    44    47    1
   144    44    43    1
   145    12    18   am
   146    70    69    2
   147     4     3    2
   148    69    68    1
   149    26    28    1
   150    26    23    1
   151    42    41    1
   152     2     1    1
   153     2     3    1
   154    71    68    1
   155    71    72    1
   156    18    19    1
   157    40    41    1
   158    40    39    1
   159    68    67    1
   160    25    24    2
   161    24    23    1
   162    34    35    1
   163    38    39    1
   164    38    35    1
   165    74    72    1
   166    19    20    1
   167    23    22    1
   168    35    36    1
   169    20    21    2
   170    36    37    2
