@<TRIPOS>MOLECULE
tmp/3bynA00.pdb
 225 217 0 0 0
SMALL
GASTEIGER

@<TRIPOS>ATOM
      1  N         45.6330   40.5900    7.3780 N.3    52  TRP52      -0.1227
      2  CA        45.7570   40.1040    8.7480 C.3    52  TRP52       0.1737
      3  C         46.1440   38.6280    8.8570 C.2    52  TRP52       0.2595
      4  O         47.2080   38.2530    8.3590 O.2    52  TRP52      -0.2718
      5  CB        44.5750   40.5420    9.6380 C.3    52  TRP52       0.0564
      6  CG        43.1860   40.1230    9.2320 C.ar   52  TRP52       0.0003
      7  CD1       42.4130   39.1750    9.8400 C.ar   52  TRP52       0.0946
      8  CD2       42.3880   40.6720    8.1710 C.ar   52  TRP52       0.0152
      9  NE1       41.1920   39.0910    9.2210 N.ar   52  TRP52      -0.2442
     10  CE2       41.1460   39.9970    8.1940 C.ar   52  TRP52       0.0810
     11  CE3       42.6000   41.6680    7.2050 C.ar   52  TRP52       0.0012
     12  CZ2       40.1250   40.2710    7.2760 C.ar   52  TRP52       0.0191
     13  CZ3       41.5750   41.9490    6.2960 C.ar   52  TRP52       0.0001
     14  CH2       40.3550   41.2500    6.3400 C.ar   52  TRP52       0.0015
     15  N         45.3200   37.8040    9.5130 N.am   53  ASP53      -0.1974
     16  CA        45.5990   36.3680    9.6870 C.3    53  ASP53       0.1709
     17  C         46.3080   35.7550    8.4810 C.2    53  ASP53       0.2293
     18  O         45.7660   35.7540    7.3730 O.2    53  ASP53      -0.2864
     19  CB        44.2990   35.5920    9.8810 C.3    53  ASP53       0.1436
     20  CG        43.7360   35.7010   11.2770 C.2    53  ASP53       0.3671
     21  OD1       44.0800   36.6400   12.0270 O.co2  53  ASP53      -0.2456
     22  OD2       42.9170   34.8240   11.6120 O.co2  53  ASP53      -0.2456
     23  N         44.3120   36.5050    5.0380 N.3    76  LEU76      -0.1245
     24  CA        43.0430   37.2200    4.9480 C.3    76  LEU76       0.1561
     25  C         43.3400   38.6640    4.5990 C.2    76  LEU76       0.2260
     26  O         44.2370   39.2800    5.1820 O.2    76  LEU76      -0.2867
     27  CB        42.2440   37.1340    6.2530 C.3    76  LEU76       0.0270
     28  CG        41.9330   35.7510    6.8420 C.3    76  LEU76       0.0019
     29  CD1       40.9570   35.9000    8.0010 C.3    76  LEU76       0.0001
     30  CD2       41.3860   34.7750    5.7990 C.3    76  LEU76       0.0001
     31  N         34.5300   45.8500    7.3210 N.3    83  ALA83      -0.1231
     32  CA        34.9340   44.7610    8.2220 C.3    83  ALA83       0.1694
     33  C         34.4320   43.3810    7.7790 C.2    83  ALA83       0.2592
     34  O         34.9750   42.3520    8.1980 O.2    83  ALA83      -0.2718
     35  CB        34.4860   45.0610    9.6490 C.3    83  ALA83       0.0304
     36  N         33.4000   43.3660    6.9370 N.am   84  ASP84      -0.1974
     37  CA        32.8130   42.1220    6.4410 C.3    84  ASP84       0.1709
     38  C         33.3590   41.7390    5.0610 C.2    84  ASP84       0.2293
     39  O         32.8390   40.8320    4.4180 O.2    84  ASP84      -0.2864
     40  CB        31.2810   42.2280    6.3980 C.3    84  ASP84       0.1436
     41  CG        30.6620   42.4650    7.7750 C.2    84  ASP84       0.3671
     42  OD1       31.2720   42.0940    8.7970 O.co2  84  ASP84      -0.2456
     43  OD2       29.5490   43.0250    7.8340 O.co2  84  ASP84      -0.2456
     44  N         36.2530   39.9950    3.5810 N.3    86  THR86      -0.1218
     45  CA        37.3390   39.0780    3.9170 C.3    86  THR86       0.1862
     46  C         37.4670   37.9850    2.8510 C.2    86  THR86       0.2287
     47  O         36.5480   37.1880    2.6560 O.2    86  THR86      -0.2866
     48  CB        37.1210   38.4270    5.3100 C.3    86  THR86       0.1770
     49  OG1       36.7760   39.4320    6.2790 O.3    86  THR86      -0.2211
     50  CG2       38.3720   37.6900    5.7670 C.3    86  THR86       0.0375
     51  N         37.3250   32.8190    5.9020 N.3   130  TRP130     -0.1227
     52  CA        38.1040   32.9930    7.1270 C.3   130  TRP130      0.1737
     53  C         39.2480   31.9770    7.2020 C.2   130  TRP130      0.2596
     54  O         39.3930   31.1370    6.3110 O.2   130  TRP130     -0.2718
     55  CB        37.1840   32.9570    8.3610 C.3   130  TRP130      0.0564
     56  CG        36.3050   34.1920    8.4910 C.ar  130  TRP130      0.0003
     57  CD1       36.1960   35.2210    7.5970 C.ar  130  TRP130      0.0946
     58  CD2       35.4040   34.5040    9.5630 C.ar  130  TRP130      0.0152
     59  NE1       35.3030   36.1570    8.0510 N.ar  130  TRP130     -0.2442
     60  CE2       34.7990   35.7430    9.2550 C.ar  130  TRP130      0.0810
     61  CE3       35.0580   33.8630   10.7610 C.ar  130  TRP130      0.0012
     62  CZ2       33.8650   36.3550   10.0980 C.ar  130  TRP130      0.0191
     63  CZ3       34.1230   34.4750   11.6010 C.ar  130  TRP130      0.0001
     64  CH2       33.5420   35.7050   11.2620 C.ar  130  TRP130      0.0015
     65  N         40.0480   32.0640    8.2630 N.am  131  SER131     -0.1952
     66  CA        41.3770   31.4470    8.3160 C.3   131  SER131      0.1924
     67  C         41.4130   29.9200    8.2630 C.2   131  SER131      0.2314
     68  O         40.4030   29.2450    8.4950 O.2   131  SER131     -0.2863
     69  CB        42.1370   31.9280    9.5580 C.3   131  SER131      0.2116
     70  OG        42.2270   33.3340    9.5780 O.3   131  SER131     -0.2180
     71  N         32.4960   31.0950    5.9310 N.3   149  PHE149     -0.1241
     72  CA        31.6010   31.8760    6.7800 C.3   149  PHE149      0.1605
     73  C         30.3740   32.3190    5.9940 C.2   149  PHE149      0.2264
     74  O         30.4930   32.9150    4.9170 O.2   149  PHE149     -0.2867
     75  CB        32.3260   33.0980    7.3610 C.3   149  PHE149      0.0534
     76  CG        31.4440   33.9970    8.1970 C.ar  149  PHE149     -0.0203
     77  CD1       31.2800   33.7610    9.5600 C.ar  149  PHE149     -0.0042
     78  CD2       30.7850   35.0830    7.6220 C.ar  149  PHE149     -0.0042
     79  CE1       30.4740   34.5920   10.3360 C.ar  149  PHE149     -0.0003
     80  CE2       29.9750   35.9170    8.3870 C.ar  149  PHE149     -0.0003
     81  CZ        29.8210   35.6770    9.7470 C.ar  149  PHE149     -0.0000
     82  N         23.2060   35.8880   17.8860 N.3   204  TYR204     -0.1241
     83  CA        24.1070   36.9390   18.3680 C.3   204  TYR204      0.1605
     84  C         23.6320   37.6490   19.6390 C.2   204  TYR204      0.2264
     85  O         24.4480   37.9810   20.5040 O.2   204  TYR204     -0.2867
     86  CB        24.3930   37.9610   17.2560 C.3   204  TYR204      0.0534
     87  CG        25.2190   37.4070   16.1110 C.ar  204  TYR204     -0.0201
     88  CD1       26.6080   37.3170   16.2080 C.ar  204  TYR204     -0.0009
     89  CD2       24.6120   36.9750   14.9300 C.ar  204  TYR204     -0.0009
     90  CE1       27.3750   36.8090   15.1570 C.ar  204  TYR204      0.0417
     91  CE2       25.3700   36.4610   13.8700 C.ar  204  TYR204      0.0417
     92  CZ        26.7510   36.3850   13.9940 C.ar  204  TYR204      0.1957
     93  OH        27.5120   35.8850   12.9620 O.3   204  TYR204     -0.2866
     94  N         29.0010   32.7180   21.4830 N.3   209  ASN209     -0.1225
     95  CA        29.9710   32.8990   20.4160 C.3   209  ASN209      0.1785
     96  C         30.2240   31.5590   19.7400 C.2   209  ASN209      0.2597
     97  O         30.9890   30.7340   20.2440 O.2   209  ASN209     -0.2718
     98  CB        31.2760   33.5010   20.9680 C.3   209  ASN209      0.1169
     99  CG        32.2840   33.8480   19.8760 C.2   209  ASN209      0.2627
    100  OD1       31.9790   33.8000   18.6830 O.2   209  ASN209     -0.2716
    101  ND2       33.4940   34.2170   20.2890 N.am  209  ASN209     -0.0877
    102  N         29.5530   31.3430   18.6100 N.am  210  HIS210     -0.1975
    103  CA        29.7110   30.1050   17.8530 C.3   210  HIS210      0.1656
    104  C         30.9150   30.1910   16.9280 C.2   210  HIS210      0.2291
    105  O         31.0630   31.1440   16.1520 O.2   210  HIS210     -0.2864
    106  CB        28.4480   29.7420   17.0600 C.3   210  HIS210      0.0771
    107  CG        28.6490   28.6010   16.1110 C.ar  210  HIS210      0.0820
    108  ND1       28.9740   27.3300   16.5350 N.ar  210  HIS210     -0.2267
    109  CD2       28.6050   28.5460   14.7600 C.ar  210  HIS210      0.1154
    110  CE1       29.1170   26.5410   15.4860 C.ar  210  HIS210      0.1986
    111  NE2       28.8950   27.2530   14.3970 N.ar  210  HIS210     -0.2212
    112  N         36.2580   26.9690   12.9870 N.3   213  ARG213     -0.1231
    113  CA        37.1430   27.7010   12.0970 C.3   213  ARG213      0.1694
    114  C         38.6230   27.4440   12.3300 C.2   213  ARG213      0.2592
    115  O         39.0030   26.6190   13.1650 O.2   213  ARG213     -0.2718
    116  CB        36.8450   29.2090   12.1770 C.3   213  ARG213      0.0321
    117  CG        37.0000   29.8870   13.5370 C.3   213  ARG213      0.0489
    118  CD        36.6330   31.3560   13.3600 C.3   213  ARG213      0.2205
    119  NE        36.7340   32.1750   14.5670 N.pl3 213  ARG213     -0.0865
    120  CZ        35.7000   32.7660   15.1670 C.cat 213  ARG213      0.5346
    121  NH1       34.4680   32.6270   14.6880 N.pl3 213  ARG213      0.1354
    122  NH2       35.8980   33.5010   16.2490 N.pl3 213  ARG213      0.1354
    123  N         39.4470   28.1640   11.5710 N.am  214  ASP214     -0.1974
    124  CA        40.9090   28.1160   11.6850 C.3   214  ASP214      0.1709
    125  C         41.4720   26.6850   11.6610 C.2   214  ASP214      0.2293
    126  O         42.2780   26.3310   12.5300 O.2   214  ASP214     -0.2864
    127  CB        41.3700   28.8560   12.9550 C.3   214  ASP214      0.1436
    128  CG        40.8090   30.2790   13.0590 C.2   214  ASP214      0.3671
    129  OD1       40.1840   30.7800   12.0890 O.co2 214  ASP214     -0.2456
    130  OD2       41.0110   30.9040   14.1250 O.co2 214  ASP214     -0.2456
    131  N         39.6370   25.5720   15.7440 N.3   229  GLU229     -0.1245
    132  CA        38.8620   26.2800   16.7560 C.3   229  GLU229      0.1567
    133  C         37.4140   25.8020   16.6830 C.2   229  GLU229      0.2260
    134  O         36.8320   25.7290   15.6030 O.2   229  GLU229     -0.2867
    135  CB        38.9140   27.8050   16.5710 C.3   229  GLU229      0.0388
    136  CG        37.7690   28.5060   17.3270 C.3   229  GLU229      0.1160
    137  CD        37.9620   29.9900   17.5700 C.2   229  GLU229      0.3649
    138  OE1       38.6400   30.6580   16.7660 O.co2 229  GLU229     -0.2457
    139  OE2       37.4030   30.4950   18.5710 O.co2 229  GLU229     -0.2457
    140  N         36.3230   31.5510   23.1240 N.3   307  GLU307     -0.1245
    141  CA        37.1140   31.8160   21.9320 C.3   307  GLU307      0.1567
    142  C         38.6030   31.5230   22.0950 C.2   307  GLU307      0.2260
    143  O         39.3650   32.3560   22.5990 O.2   307  GLU307     -0.2867
    144  CB        36.9020   33.2600   21.4730 C.3   307  GLU307      0.0388
    145  CG        37.2960   33.5120   20.0230 C.3   307  GLU307      0.1160
    146  CD        37.1500   34.9650   19.6450 C.2   307  GLU307      0.3649
    147  OE1       38.0840   35.7550   19.9260 O.co2 307  GLU307     -0.2457
    148  OE2       36.0970   35.3140   19.0710 O.co2 307  GLU307     -0.2457
    149  N         41.4680   30.5950   19.4580 N.3   309  ALA309     -0.1231
    150  CA        41.6030   30.7300   18.0050 C.3   309  ALA309      0.1694
    151  C         42.8970   30.1820   17.4270 C.2   309  ALA309      0.2591
    152  O         43.8400   29.8640   18.1630 O.2   309  ALA309     -0.2718
    153  CB        41.4700   32.1860   17.6190 C.3   309  ALA309      0.0304
    154  N         42.9230   30.1010   16.0920 N.am  310  ARG310     -0.1980
    155  CA        44.1210   29.7690   15.3140 C.3   310  ARG310      0.1597
    156  C         44.8820   28.5700   15.8660 C.2   310  ARG310      0.2287
    157  O         46.0800   28.6590   16.1760 O.2   310  ARG310     -0.2864
    158  CB        45.0320   30.9960   15.1710 C.3   310  ARG310      0.0334
    159  CG        44.3890   32.1440   14.4020 C.3   310  ARG310      0.0492
    160  CD        45.4200   32.8960   13.5750 C.3   310  ARG310      0.2205
    161  NE        45.8150   32.1370   12.4000 N.pl3 310  ARG310     -0.0865
    162  CZ        46.9070   32.3630   11.6780 C.cat 310  ARG310      0.5346
    163  NH1       47.7510   33.3350   11.9980 N.pl3 310  ARG310      0.1354
    164  NH2       47.1570   31.5930   10.6360 N.pl3 310  ARG310      0.1354
    165  N         41.9230   36.2440   23.3390 N.3   327  ARG327     -0.1245
    166  CA        41.8170   37.6180   23.8190 C.3   327  ARG327      0.1563
    167  C         41.3180   37.6770   25.2620 C.2   327  ARG327      0.2260
    168  O         40.2700   37.1220   25.5850 O.2   327  ARG327     -0.2867
    169  CB        40.8830   38.4220   22.9070 C.3   327  ARG327      0.0307
    170  CG        41.3190   38.4840   21.4490 C.3   327  ARG327      0.0489
    171  CD        40.2220   39.0950   20.5760 C.3   327  ARG327      0.2205
    172  NE        40.6120   39.2020   19.1670 N.pl3 327  ARG327     -0.0865
    173  CZ        41.2910   40.2210   18.6420 C.cat 327  ARG327      0.5346
    174  NH1       41.6820   41.2400   19.4020 N.pl3 327  ARG327      0.1354
    175  NH2       41.5860   40.2200   17.3470 N.pl3 327  ARG327      0.1354
    176  N         37.7020   38.5530   26.2840 N.3   330  LYS330     -0.1245
    177  CA        36.6450   37.5400   26.1980 C.3   330  LYS330      0.1561
    178  C         36.7390   36.4890   27.3080 C.2   330  LYS330      0.2260
    179  O         35.9410   35.5460   27.3570 O.2   330  LYS330     -0.2867
    180  CB        36.6470   36.8730   24.8190 C.3   330  LYS330      0.0271
    181  CG        36.3560   37.8270   23.6750 C.3   330  LYS330      0.0035
    182  CD        36.1990   37.0910   22.3490 C.3   330  LYS330      0.0206
    183  CE        35.9960   38.0760   21.1940 C.3   330  LYS330      0.1093
    184  NZ        34.7790   38.9120   21.3800 N.3   330  LYS330     -0.1314
    185  N         48.4700   40.6600   16.7570 N.3   378  TYR378     -0.1227
    186  CA        47.5940   39.5490   17.1170 C.3   378  TYR378      0.1736
    187  C         47.8270   38.3710   16.1600 C.2   378  TYR378      0.2596
    188  O         48.5060   38.5190   15.1360 O.2   378  TYR378     -0.2718
    189  CB        46.1100   39.9820   17.1210 C.3   378  TYR378      0.0548
    190  CG        45.1950   38.9070   17.6730 C.ar  378  TYR378     -0.0200
    191  CD1       45.2130   38.5870   19.0300 C.ar  378  TYR378     -0.0009
    192  CD2       44.3460   38.1790   16.8380 C.ar  378  TYR378     -0.0009
    193  CE1       44.4050   37.5790   19.5490 C.ar  378  TYR378      0.0417
    194  CE2       43.5270   37.1700   17.3470 C.ar  378  TYR378      0.0417
    195  CZ        43.5650   36.8780   18.7030 C.ar  378  TYR378      0.1957
    196  OH        42.7720   35.8850   19.2280 O.3   378  TYR378     -0.2866
    197  N         47.2850   37.2060   16.5160 N.am  379  SER379     -0.1952
    198  CA        47.2120   36.0460   15.6190 C.3   379  SER379      0.1924
    199  C         48.5760   35.3560   15.4970 C.2   379  SER379      0.2314
    200  O         48.9060   34.7670   14.4630 O.2   379  SER379     -0.2863
    201  CB        46.6620   36.4530   14.2450 C.3   379  SER379      0.2116
    202  OG        45.6120   35.6040   13.8300 O.3   379  SER379     -0.2180
    203  N         50.1480   39.2230   12.5980 N.3   396  TYR396     -0.1241
    204  CA        49.8570   40.4390   11.8450 C.3   396  TYR396      0.1605
    205  C         50.0110   41.6480   12.7580 C.2   396  TYR396      0.2264
    206  O         49.8290   41.5360   13.9750 O.2   396  TYR396     -0.2867
    207  CB        48.4950   40.3770   11.1320 C.3   396  TYR396      0.0534
    208  CG        47.2480   40.6500   11.9550 C.ar  396  TYR396     -0.0201
    209  CD1       46.8010   41.9560   12.1710 C.ar  396  TYR396     -0.0009
    210  CD2       46.4720   39.5960   12.4520 C.ar  396  TYR396     -0.0009
    211  CE1       45.6330   42.2120   12.8980 C.ar  396  TYR396      0.0417
    212  CE2       45.3040   39.8400   13.1810 C.ar  396  TYR396      0.0417
    213  CZ        44.8930   41.1450   13.3990 C.ar  396  TYR396      0.1957
    214  OH        43.7390   41.3890   14.1160 O.3   396  TYR396     -0.2866
    215  N         43.0200   46.2730   12.0560 N.3   400  ARG400     -0.1245
    216  CA        42.2370   46.4940   10.8410 C.3   400  ARG400      0.1563
    217  C         41.4510   47.7960   10.8730 C.2   400  ARG400      0.2260
    218  O         40.8190   48.1200   11.8800 O.2   400  ARG400     -0.2867
    219  CB        41.2630   45.3380   10.6240 C.3   400  ARG400      0.0307
    220  CG        41.9180   43.9960   10.3620 C.3   400  ARG400      0.0489
    221  CD        40.8690   42.8970   10.3510 C.3   400  ARG400      0.2205
    222  NE        39.8750   43.1120    9.3010 N.pl3 400  ARG400     -0.0865
    223  CZ        38.7430   42.4250    9.1780 C.cat 400  ARG400      0.5346
    224  NH1       38.4420   41.4620   10.0410 N.pl3 400  ARG400      0.1354
    225  NH2       37.9110   42.6960    8.1780 N.pl3 400  ARG400      0.1354
@<TRIPOS>BOND
     1    47    46    2
     2    46    45    1
     3    44    45    1
     4    45    48    1
     5    39    38    2
     6    25    24    1
     7    25    26    2
     8    74    73    2
     9    24    23    1
    10    24    27    1
    11    38    37    1
    12    48    50    1
    13    48    49    1
    14    30    28    1
    15    51    52    1
    16    71    72    1
    17    73    72    1
    18    27    28    1
    19    13    14   ar
    20    13    11   ar
    21    54    53    2
    22    14    12   ar
    23    40    37    1
    24    40    41    1
    25    37    36    1
    26    72    75    1
    27    28    29    1
    28    36    33   am
    29    52    53    1
    30    52    55    1
    31    53    65   am
    32    11     8   ar
    33    12    10   ar
    34    31    32    1
    35    75    76    1
    36    18    17    2
    37     1     2    1
    38    57    59   ar
    39    57    56   ar
    40    78    76   ar
    41    78    80   ar
    42    41    43   ar
    43    41    42   ar
    44    33    34    2
    45    33    32    1
    46    59    60   ar
    47     8    10   ar
    48     8     6   ar
    49   225   223    1
    50    10     9   ar
    51    76    77   ar
    52    32    35    1
    53    67    66    1
    54    67    68    2
    55    65    66    1
    56    66    69    1
    57     4     3    2
    58    55    56    1
    59    80    81   ar
    60    17    16    1
    61    56    58   ar
    62     2     3    1
    63     2     5    1
    64     3    15   am
    65   223   222    2
    66   223   224    1
    67     9     7   ar
    68     6     5    1
    69     6     7   ar
    70    60    58   ar
    71    60    62   ar
    72   222   221    1
    73    15    16    1
    74    69    70    1
    75    77    79   ar
    76    58    61   ar
    77    16    19    1
    78    81    79   ar
    79    19    20    1
    80    62    64   ar
    81   221   220    1
    82   220   219    1
    83   219   216    1
    84   164   162    1
    85    61    63   ar
    86   216   217    1
    87   216   215    1
    88   217   218    2
    89   207   204    1
    90   207   208    1
    91    64    63   ar
    92    20    22   ar
    93    20    21   ar
    94   123   124    1
    95   123   114   am
    96   125   124    1
    97   125   126    2
    98   162   163    1
    99   162   161    2
   100   124   127    1
   101   204   203    1
   102   204   205    1
   103   208   209   ar
   104   208   210   ar
   105   129   128   ar
   106   113   116    1
   107   113   114    1
   108   113   112    1
   109   209   211   ar
   110   116   117    1
   111   114   115    2
   112   161   160    1
   113   210   212   ar
   114   205   206    2
   115   211   213   ar
   116   127   128    1
   117    93    92    1
   118   128   130   ar
   119   212   213   ar
   120   118   117    1
   121   118   119    1
   122   213   214    1
   123   160   159    1
   124   202   201    1
   125    91    92   ar
   126    91    89   ar
   127    92    90   ar
   128   201   198    1
   129   111   109   ar
   130   111   110   ar
   131   159   158    1
   132   200   199    2
   133   119   120    2
   134   121   120    1
   135   109   107   ar
   136    89    87   ar
   137   188   187    2
   138    90    88   ar
   139   120   122    1
   140   158   155    1
   141   155   156    1
   142   155   154    1
   143   110   108   ar
   144   199   198    1
   145   134   133    2
   146   198   197    1
   147   131   132    1
   148   156   157    2
   149   154   151   am
   150   107   108   ar
   151   107   106    1
   152    87    88   ar
   153    87    86    1
   154   105   104    2
   155   187   197   am
   156   187   186    1
   157   135   132    1
   158   135   136    1
   159   133   132    1
   160   185   186    1
   161   138   137   ar
   162   192   194   ar
   163   192   190   ar
   164   104   103    1
   165   106   103    1
   166   186   189    1
   167   189   190    1
   168    86    83    1
   169   136   137    1
   170   194   195   ar
   171   175   173    1
   172   151   150    1
   173   151   152    2
   174   137   139   ar
   175   153   150    1
   176   190   191   ar
   177   103   102    1
   178    82    83    1
   179   150   149    1
   180    83    84    1
   181   102    96   am
   182   173   172    2
   183   173   174    1
   184   100    99    2
   185   195   196    1
   186   195   193   ar
   187   191   193   ar
   188   148   146   ar
   189   172   171    1
   190    84    85    2
   191   146   147   ar
   192   146   145    1
   193    96    97    2
   194    96    95    1
   195    99   101   am
   196    99    98    1
   197   145   144    1
   198    95    98    1
   199    95    94    1
   200   171   170    1
   201   183   184    1
   202   183   182    1
   203   170   169    1
   204   144   141    1
   205   141   142    1
   206   141   140    1
   207   142   143    2
   208   182   181    1
   209   169   166    1
   210   165   166    1
   211   181   180    1
   212   166   167    1
   213   180   177    1
   214   167   168    2
   215   177   176    1
   216   177   178    1
   217   178   179    2
