@<TRIPOS>MOLECULE
tmp/3byoA00.pdb
 177 166 0 0 0
SMALL
GASTEIGER

@<TRIPOS>ATOM
      1  N         31.6290   29.2600   90.1210 N.3    19  GLU19      -0.1231
      2  CA        32.3900   30.5030   90.1230 C.3    19  GLU19       0.1699
      3  C         31.5170   31.7360   90.3640 C.2    19  GLU19       0.2592
      4  O         30.4980   31.9380   89.7000 O.2    19  GLU19      -0.2718
      5  CB        33.1210   30.6560   88.7870 C.3    19  GLU19       0.0402
      6  CG        34.0470   31.8550   88.7530 C.3    19  GLU19       0.1161
      7  CD        34.6790   32.0830   87.3970 C.2    19  GLU19       0.3649
      8  OE1       35.1820   31.1040   86.7970 O.co2  19  GLU19      -0.2457
      9  OE2       34.6860   33.2470   86.9360 O.co2  19  GLU19      -0.2457
     10  N         31.9290   32.5720   91.3100 N.am   20  ARG20      -0.1966
     11  CA        31.1650   33.7670   91.6180 C.3    20  ARG20       0.1729
     12  C         31.4160   34.8400   90.5650 C.2    20  ARG20       0.2616
     13  O         32.5650   35.1530   90.2340 O.2    20  ARG20      -0.2715
     14  CB        31.5330   34.2810   93.0120 C.3    20  ARG20       0.0348
     15  CG        30.4910   35.1990   93.5910 C.3    20  ARG20       0.0492
     16  CD        30.7660   35.5120   95.0420 C.3    20  ARG20       0.2205
     17  NE        32.1040   36.0510   95.2660 N.pl3  20  ARG20      -0.0865
     18  CZ        32.5490   36.4340   96.4590 C.cat  20  ARG20       0.5346
     19  NH1       31.7550   36.3350   97.5160 N.pl3  20  ARG20       0.1354
     20  NH2       33.7820   36.9130   96.6000 N.pl3  20  ARG20       0.1354
     21  N         30.3280   35.3890   90.0340 N.am   21  LEU21      -0.1963
     22  CA        30.3910   36.4170   89.0000 C.3    21  LEU21       0.1728
     23  C         30.1520   37.7850   89.5940 C.2    21  LEU21       0.2616
     24  O         30.5620   38.7970   89.0220 O.2    21  LEU21      -0.2715
     25  CB        29.3290   36.1630   87.9260 C.3    21  LEU21       0.0311
     26  CG        29.2860   34.7400   87.3760 C.3    21  LEU21       0.0022
     27  CD1       28.2490   34.6690   86.2630 C.3    21  LEU21       0.0001
     28  CD2       30.6590   34.3360   86.8720 C.3    21  LEU21       0.0001
     29  N         29.4680   37.8140   90.7330 N.am   22  GLY22      -0.1955
     30  CA        29.1830   39.0770   91.3850 C.3    22  GLY22       0.1869
     31  C         28.7330   38.9090   92.8240 C.2    22  GLY22       0.2309
     32  O         28.1640   37.8860   93.1930 O.2    22  GLY22      -0.2863
     33  N         25.8820   36.2700   92.7660 N.3    29  VAL29      -0.1245
     34  CA        25.5140   35.6470   91.5090 C.3    29  VAL29       0.1561
     35  C         26.6560   34.7300   91.1080 C.2    29  VAL29       0.2260
     36  O         27.8170   35.1410   91.0620 O.2    29  VAL29      -0.2867
     37  CB        25.2770   36.6690   90.4000 C.3    29  VAL29       0.0252
     38  CG1       24.9850   35.9350   89.0940 C.3    29  VAL29       0.0019
     39  CG2       24.1070   37.5670   90.7770 C.3    29  VAL29       0.0019
     40  N         23.3650   30.4280   85.4080 N.3    41  ALA41      -0.1245
     41  CA        23.7450   31.5380   86.2730 C.3    41  ALA41       0.1562
     42  C         22.7980   31.4200   87.4610 C.2    41  ALA41       0.2260
     43  O         21.6000   31.1880   87.2810 O.2    41  ALA41      -0.2867
     44  CB        23.5420   32.8520   85.5710 C.3    41  ALA41       0.0290
     45  N         21.4570   33.2640   91.0470 N.3    43  LYS43      -0.1245
     46  CA        21.3920   34.4570   91.8820 C.3    43  LYS43       0.1561
     47  C         20.8450   34.0350   93.2340 C.2    43  LYS43       0.2260
     48  O         19.7680   33.4420   93.3200 O.2    43  LYS43      -0.2867
     49  CB        20.4770   35.4960   91.2290 C.3    43  LYS43       0.0271
     50  CG        20.3790   36.8380   91.9500 C.3    43  LYS43       0.0035
     51  CD        19.5740   37.8090   91.0770 C.3    43  LYS43       0.0206
     52  CE        19.2600   39.1020   91.7620 C.3    43  LYS43       0.1093
     53  NZ        18.4940   39.9440   90.8090 N.3    43  LYS43      -0.1314
     54  N         10.8710   39.2800   90.2580 N.3    58  GLU58      -0.1245
     55  CA        11.6050   39.3710   89.0080 C.3    58  GLU58       0.1567
     56  C         11.4600   38.0320   88.2610 C.2    58  GLU58       0.2260
     57  O         11.1630   37.9910   87.0690 O.2    58  GLU58      -0.2867
     58  CB        13.0710   39.6680   89.3390 C.3    58  GLU58       0.0388
     59  CG        13.9950   39.7750   88.1800 C.3    58  GLU58       0.1160
     60  CD        15.4290   40.0040   88.6120 C.2    58  GLU58       0.3649
     61  OE1       15.7250   39.8800   89.8210 O.co2  58  GLU58      -0.2457
     62  OE2       16.2600   40.3030   87.7460 O.co2  58  GLU58      -0.2457
     63  N          9.6130   37.0370   84.5650 N.3    62  MET62      -0.1245
     64  CA        10.2800   36.2750   83.5220 C.3    62  MET62       0.1570
     65  C          9.5090   35.0060   83.1630 C.2    62  MET62       0.2261
     66  O          9.6880   34.4580   82.0770 O.2    62  MET62      -0.2867
     67  CB        11.7010   35.9230   83.9630 C.3    62  MET62       0.0387
     68  CG        12.5900   37.1520   84.2140 C.3    62  MET62       0.0595
     69  SD        14.1310   36.6850   85.0100 S.3    62  MET62      -0.1393
     70  CE        15.1460   36.2110   83.5990 C.3    62  MET62       0.0692
     71  N         17.0420   37.0040   78.2260 N.3    71  VAL71      -0.1245
     72  CA        17.6330   35.9960   79.1010 C.3    71  VAL71       0.1561
     73  C         16.5000   35.1500   79.6810 C.2    71  VAL71       0.2260
     74  O         15.5320   35.6730   80.2430 O.2    71  VAL71      -0.2867
     75  CB        18.4910   36.6490   80.2150 C.3    71  VAL71       0.0252
     76  CG1       18.9990   35.5890   81.1810 C.3    71  VAL71       0.0019
     77  CG2       19.6900   37.3670   79.5850 C.3    71  VAL71       0.0019
     78  N         17.4740   32.1520   92.1160 N.3    84  ILE84      -0.1245
     79  CA        16.8530   32.4190   90.8250 C.3    84  ILE84       0.1561
     80  C         17.9100   31.9020   89.8520 C.2    84  ILE84       0.2260
     81  O         19.0380   32.3880   89.8440 O.2    84  ILE84      -0.2867
     82  CB        16.6500   33.9140   90.5400 C.3    84  ILE84       0.0252
     83  CG1       15.5800   34.5010   91.4630 C.3    84  ILE84       0.0019
     84  CG2       16.2500   34.0930   89.0780 C.3    84  ILE84       0.0019
     85  CD1       15.3500   35.9900   91.2530 C.3    84  ILE84       0.0001
     86  N         19.0760   31.1470   85.9080 N.3    86  THR86      -0.1203
     87  CA        18.7870   31.5790   84.5530 C.3    86  THR86       0.1994
     88  C         19.7690   31.0870   83.5020 C.2    86  THR86       0.2618
     89  O         20.7430   30.3940   83.8050 O.2    86  THR86      -0.2717
     90  CB        18.7640   33.1070   84.4700 C.3    86  THR86       0.1784
     91  OG1       20.0940   33.6100   84.6670 O.3    86  THR86      -0.2211
     92  CG2       17.8560   33.6810   85.5460 C.3    86  THR86       0.0376
     93  N         19.4710   31.4680   82.2630 N.am   87  GLU87      -0.1965
     94  CA        20.2700   31.1630   81.0880 C.3    87  GLU87       0.1733
     95  C         21.6200   31.8780   81.2130 C.2    87  GLU87       0.2616
     96  O         21.6740   33.0980   81.3740 O.2    87  GLU87      -0.2715
     97  CB        19.5090   31.6470   79.8510 C.3    87  GLU87       0.0429
     98  CG        20.3070   31.7740   78.5570 C.3    87  GLU87       0.1163
     99  CD        19.4070   32.1120   77.3670 C.2    87  GLU87       0.3649
    100  OE1       18.4830   32.9370   77.5380 O.co2  87  GLU87      -0.2457
    101  OE2       19.6240   31.5620   76.2670 O.co2  87  GLU87      -0.2457
    102  N         22.7020   31.1080   81.1480 N.am   88  TYR88      -0.1960
    103  CA        24.0510   31.6610   81.2640 C.3    88  TYR88       0.1771
    104  C         24.5280   32.2730   79.9550 C.2    88  TYR88       0.2619
    105  O         24.4650   31.6330   78.9030 O.2    88  TYR88      -0.2715
    106  CB        25.0390   30.5720   81.6930 C.3    88  TYR88       0.0574
    107  CG        26.4450   31.0840   81.9440 C.ar   88  TYR88      -0.0198
    108  CD1       26.7320   31.8590   83.0660 C.ar   88  TYR88      -0.0009
    109  CD2       27.4810   30.8060   81.0570 C.ar   88  TYR88      -0.0009
    110  CE1       28.0170   32.3480   83.3030 C.ar   88  TYR88       0.0417
    111  CE2       28.7770   31.2960   81.2820 C.ar   88  TYR88       0.0417
    112  CZ        29.0330   32.0640   82.4090 C.ar   88  TYR88       0.1957
    113  OH        30.2970   32.5540   82.6600 O.3    88  TYR88      -0.2866
    114  N         25.0050   33.5130   80.0300 N.am   89  MET89      -0.1963
    115  CA        25.5140   34.2220   78.8590 C.3    89  MET89       0.1736
    116  C         27.0310   34.2860   79.0160 C.2    89  MET89       0.2616
    117  O         27.5530   35.0500   79.8230 O.2    89  MET89      -0.2715
    118  CB        24.9150   35.6250   78.7870 C.3    89  MET89       0.0427
    119  CG        23.3760   35.6480   78.6970 C.3    89  MET89       0.0599
    120  SD        22.7220   34.7210   77.3060 S.3    89  MET89      -0.1393
    121  CE        23.2740   35.7110   75.9050 C.3    89  MET89       0.0692
    122  N         27.7240   33.4710   78.2300 N.am   90  GLU90      -0.1963
    123  CA        29.1730   33.3480   78.2910 C.3    90  GLU90       0.1733
    124  C         30.0000   34.6260   78.2810 C.2    90  GLU90       0.2616
    125  O         30.9770   34.7150   79.0170 O.2    90  GLU90      -0.2715
    126  CB        29.6670   32.4340   77.1660 C.3    90  GLU90       0.0429
    127  CG        31.1540   31.9810   77.3000 C.3    90  GLU90       0.1163
    128  CD        31.3840   30.9850   78.4360 C.2    90  GLU90       0.3649
    129  OE1       30.8430   29.8510   78.3730 O.co2  90  GLU90      -0.2457
    130  OE2       32.1060   31.3340   79.3970 O.co2  90  GLU90      -0.2457
    131  N         29.6330   35.6080   77.4610 N.am   91  ASN91      -0.1958
    132  CA        30.4230   36.8310   77.3970 C.3    91  ASN91       0.1819
    133  C         29.9810   37.9930   78.2670 C.2    91  ASN91       0.2622
    134  O         30.3670   39.1260   78.0210 O.2    91  ASN91      -0.2715
    135  CB        30.5660   37.2970   75.9480 C.3    91  ASN91       0.1195
    136  CG        31.6270   36.5210   75.2000 C.2    91  ASN91       0.2630
    137  OD1       32.7490   36.3670   75.6880 O.2    91  ASN91      -0.2716
    138  ND2       31.2880   36.0310   74.0140 N.am   91  ASN91      -0.0877
    139  N         29.1780   37.7090   79.2840 N.am   92  GLY92      -0.1940
    140  CA        28.7440   38.7450   80.2080 C.3    92  GLY92       0.2014
    141  C         27.9880   39.9200   79.6280 C.2    92  GLY92       0.2639
    142  O         27.3530   39.7980   78.5800 O.2    92  GLY92      -0.2714
    143  N         28.0530   41.0570   80.3180 N.am   93  SER93      -0.1949
    144  CA        27.3520   42.2560   79.8810 C.3    93  SER93       0.1924
    145  C         28.0230   42.9070   78.6860 C.2    93  SER93       0.2314
    146  O         29.2430   42.8610   78.5310 O.2    93  SER93      -0.2863
    147  CB        27.2420   43.2700   81.0260 C.3    93  SER93       0.2116
    148  OG        28.4940   43.8510   81.3390 O.3    93  SER93      -0.2180
    149  N         30.7500   45.5370   79.2500 N.3    96  ASP96      -0.1239
    150  CA        32.0520   44.9600   79.5950 C.3    96  ASP96       0.1674
    151  C         32.7200   44.3050   78.3950 C.2    96  ASP96       0.2266
    152  O         33.9230   44.4760   78.1680 O.2    96  ASP96      -0.2867
    153  CB        31.9160   43.9100   80.7030 C.3    96  ASP96       0.1410
    154  CG        31.6220   44.5210   82.0650 C.2    96  ASP96       0.3668
    155  OD1       32.0400   45.6730   82.3100 O.co2  96  ASP96      -0.2456
    156  OD2       30.9820   43.8440   82.8970 O.co2  96  ASP96      -0.2456
    157  N         23.1230   41.1470   77.8070 N.3   141  LEU141     -0.1245
    158  CA        24.1330   40.1050   77.9490 C.3   141  LEU141      0.1561
    159  C         24.5050   39.5420   76.5870 C.2   141  LEU141      0.2260
    160  O         23.6790   39.4970   75.6790 O.2   141  LEU141     -0.2867
    161  CB        23.6450   38.9910   78.8900 C.3   141  LEU141      0.0270
    162  CG        23.3270   39.4680   80.3200 C.3   141  LEU141      0.0019
    163  CD1       22.9420   38.3030   81.2140 C.3   141  LEU141      0.0001
    164  CD2       24.5370   40.1770   80.8900 C.3   141  LEU141      0.0001
    165  N         18.3060   41.6340   79.5900 N.3   151  ALA151     -0.1231
    166  CA        18.3610   41.0720   80.9320 C.3   151  ALA151      0.1694
    167  C         17.9080   42.0520   82.0060 C.2   151  ALA151      0.2592
    168  O         17.6120   43.2120   81.7300 O.2   151  ALA151     -0.2718
    169  CB        19.7720   40.5970   81.2400 C.3   151  ALA151      0.0304
    170  N         17.8720   41.5490   83.2360 N.am  152  ASP152     -0.1974
    171  CA        17.4780   42.3110   84.4140 C.3   152  ASP152      0.1709
    172  C         16.1090   42.9510   84.2780 C.2   152  ASP152      0.2293
    173  O         16.0010   44.1150   83.9160 O.2   152  ASP152     -0.2864
    174  CB        18.4930   43.4050   84.7180 C.3   152  ASP152      0.1436
    175  CG        18.3750   43.9130   86.1420 C.2   152  ASP152      0.3671
    176  OD1       17.2620   43.8580   86.7200 O.co2 152  ASP152     -0.2456
    177  OD2       19.3950   44.3690   86.6820 O.co2 152  ASP152     -0.2456
@<TRIPOS>BOND
     1   138   136   am
     2   136   137    2
     3   136   135    1
     4   160   159    2
     5   121   120    1
     6   135   132    1
     7   101    99   ar
     8   159   158    1
     9   126   127    1
    10   126   123    1
    11   127   128    1
    12   120   119    1
    13    99   100   ar
    14    99    98    1
    15   132   131    1
    16   132   133    1
    17   131   124   am
    18   157   158    1
    19   158   161    1
    20   134   133    2
    21   152   151    2
    22    71    72    1
    23   122   123    1
    24   122   116   am
    25   133   139   am
    26   124   123    1
    27   124   125    2
    28   129   128   ar
    29   151   150    1
    30   128   130   ar
    31   146   145    2
    32    98    97    1
    33   142   141    2
    34   145   144    1
    35   119   118    1
    36   118   115    1
    37   115   116    1
    38   115   114    1
    39   161   162    1
    40   105   104    2
    41   116   117    2
    42    72    73    1
    43    72    75    1
    44   149   150    1
    45   139   140    1
    46    77    75    1
    47   165   166    1
    48   150   153    1
    49   141   140    1
    50   141   143   am
    51    73    74    2
    52    97    94    1
    53   144   143    1
    54   144   147    1
    55   104   114   am
    56   104   103    1
    57    75    76    1
    58   162   164    1
    59   162   163    1
    60   153   154    1
    61   166   169    1
    62   166   167    1
    63   147   148    1
    64   109   111   ar
    65   109   107   ar
    66    94    95    1
    67    94    93    1
    68   102    95   am
    69   102   103    1
    70    95    96    2
    71   103   106    1
    72   111   112   ar
    73   106   107    1
    74   168   167    2
    75   107   108   ar
    76   167   170   am
    77   154   155   ar
    78   154   156   ar
    79    66    65    2
    80    93    88   am
    81   112   113    1
    82   112   110   ar
    83   108   110   ar
    84    65    64    1
    85   170   171    1
    86    88    89    2
    87    88    87    1
    88    64    67    1
    89    64    63    1
    90    70    69    1
    91   173   172    2
    92    67    68    1
    93    68    69    1
    94   172   171    1
    95   171   174    1
    96    90    87    1
    97    90    91    1
    98    90    92    1
    99    87    86    1
   100   174   175    1
   101    40    41    1
   102    44    41    1
   103   175   177   ar
   104   175   176   ar
   105    27    26    1
   106    41    42    1
   107     8     7   ar
   108    28    26    1
   109     9     7   ar
   110    57    56    2
   111    43    42    2
   112    26    25    1
   113     7     6    1
   114    62    60   ar
   115    25    22    1
   116    59    60    1
   117    59    58    1
   118    56    55    1
   119    60    61   ar
   120     6     5    1
   121     5     2    1
   122    22    23    1
   123    22    21    1
   124    55    58    1
   125    55    54    1
   126    24    23    2
   127    84    82    1
   128    38    37    1
   129    23    29   am
   130     4     3    2
   131    81    80    2
   132    80    79    1
   133    21    12   am
   134     1     2    1
   135     2     3    1
   136    13    12    2
   137     3    10   am
   138    37    39    1
   139    37    34    1
   140    82    79    1
   141    82    83    1
   142    12    11    1
   143    29    30    1
   144    53    52    1
   145    79    78    1
   146    45    46    1
   147    36    35    2
   148    51    52    1
   149    51    50    1
   150    35    34    1
   151    49    46    1
   152    49    50    1
   153    85    83    1
   154    10    11    1
   155    30    31    1
   156    34    33    1
   157    11    14    1
   158    46    47    1
   159    31    32    2
   160    14    15    1
   161    47    48    2
   162    15    16    1
   163    16    17    1
   164    17    18    2
   165    18    20    1
   166    18    19    1
