@<TRIPOS>MOLECULE
tmp/3byzC01.pdb
 154 145 0 0 0
SMALL
GASTEIGER

@<TRIPOS>ATOM
      1  N          7.5680  -15.2800  119.8920 N.3    96  ILE96      -0.1245
      2  CA         7.4540  -13.8070  119.9660 C.3    96  ILE96       0.1561
      3  C          7.1440  -13.3250  121.4170 C.2    96  ILE96       0.2260
      4  O          6.5600  -14.0590  122.2270 O.2    96  ILE96      -0.2867
      5  CB         6.3360  -13.2260  119.0520 C.3    96  ILE96       0.0252
      6  CG1        4.9450  -13.7760  119.3940 C.3    96  ILE96       0.0019
      7  CG2        6.6420  -13.3970  117.5670 C.3    96  ILE96       0.0019
      8  CD1        3.7810  -12.9670  118.7660 C.3    96  ILE96       0.0001
      9  N          2.8590   -8.8350  122.7340 N.3    99  THR99      -0.1218
     10  CA         2.4030   -7.5140  122.3450 C.3    99  THR99       0.1862
     11  C          0.8660   -7.4280  122.3640 C.2    99  THR99       0.2287
     12  O          0.1600   -8.4350  122.5210 O.2    99  THR99      -0.2866
     13  CB         2.8450   -7.1950  120.9150 C.3    99  THR99       0.1770
     14  OG1        1.9740   -7.8950  120.0060 O.3    99  THR99      -0.2211
     15  CG2        4.3420   -7.6260  120.6410 C.3    99  THR99       0.0375
     16  N         -2.5680   -4.8090  120.4890 N.3   101  LEU101     -0.1245
     17  CA        -2.9510   -3.6610  119.6680 C.3   101  LEU101      0.1561
     18  C         -3.0040   -2.3930  120.5230 C.2   101  LEU101      0.2260
     19  O         -3.6100   -2.3790  121.5710 O.2   101  LEU101     -0.2867
     20  CB        -4.2920   -3.9270  118.9770 C.3   101  LEU101      0.0270
     21  CG        -4.2690   -4.9720  117.8320 C.3   101  LEU101      0.0019
     22  CD1       -4.4380   -4.2820  116.4920 C.3   101  LEU101      0.0001
     23  CD2       -3.0440   -5.9530  117.8360 C.3   101  LEU101      0.0001
     24  N          4.6640  -12.2620  109.3600 N.3   145  SER145     -0.1202
     25  CA         3.2630  -11.8670  109.3520 C.3   145  SER145      0.2020
     26  C          3.0590  -10.9580  108.1890 C.2   145  SER145      0.2619
     27  O          4.0500  -10.4440  107.6310 O.2   145  SER145     -0.2717
     28  CB         2.9640  -11.0410  110.5980 C.3   145  SER145      0.2103
     29  OG         3.5730  -11.5680  111.7660 O.3   145  SER145     -0.2182
     30  N          1.7890  -10.6830  107.8780 N.am  146  LEU146     -0.1965
     31  CA         1.4230   -9.5630  107.0100 C.3   146  LEU146      0.1728
     32  C          2.0240   -8.2900  107.4860 C.2   146  LEU146      0.2616
     33  O          2.6030   -7.5790  106.6800 O.2   146  LEU146     -0.2715
     34  CB        -0.0710   -9.3720  106.9930 C.3   146  LEU146      0.0311
     35  CG        -0.8120  -10.4710  106.2290 C.3   146  LEU146      0.0022
     36  CD1       -2.3070  -10.3660  106.4830 C.3   146  LEU146      0.0001
     37  CD2       -0.4910  -10.3760  104.7460 C.3   146  LEU146      0.0001
     38  N          1.8690   -7.9830  108.7860 N.am  147  ALA147     -0.1977
     39  CA         2.4800   -6.7760  109.4320 C.3   147  ALA147      0.1597
     40  C          3.9890   -6.7170  109.2350 C.2   147  ALA147      0.2287
     41  O          4.6110   -5.6740  109.4660 O.2   147  ALA147     -0.2864
     42  CB         2.1510   -6.6960  110.9210 C.3   147  ALA147      0.0319
     43  N          0.6020   -1.5810  109.2440 N.3   152  TYR152     -0.1228
     44  CA        -0.6020   -1.8030  110.0110 C.3   152  TYR152      0.1721
     45  C         -0.5510   -0.9600  111.2710 C.2   152  TYR152      0.2437
     46  O          0.4790   -1.0060  111.9920 O.2   152  TYR152     -0.2733
     47  CB        -0.5720   -3.2220  110.4990 C.3   152  TYR152      0.0547
     48  CG        -1.3650   -4.1340  109.6540 C.ar  152  TYR152     -0.0200
     49  CD1       -2.6650   -4.4160  109.9860 C.ar  152  TYR152     -0.0009
     50  CD2       -0.8130   -4.7100  108.5090 C.ar  152  TYR152     -0.0009
     51  CE1       -3.4040   -5.2340  109.2340 C.ar  152  TYR152      0.0417
     52  CE2       -1.5610   -5.5550  107.7120 C.ar  152  TYR152      0.0417
     53  CZ        -2.8610   -5.8080  108.0950 C.ar  152  TYR152      0.1957
     54  OH        -3.6540   -6.6490  107.3500 O.3   152  TYR152     -0.2866
     55  N         -1.6290   -0.1810  111.5630 N.am  153  PRO153     -0.2718
     56  CA        -1.5890    0.5180  112.8410 C.3   153  PRO153      0.1535
     57  C         -1.7360   -0.3910  114.0810 C.2   153  PRO153      0.2598
     58  O         -2.1790   -1.5330  114.0020 O.2   153  PRO153     -0.2715
     59  CB        -2.7090    1.5470  112.7190 C.3   153  PRO153      0.0310
     60  CG        -3.5770    1.0640  111.6800 C.3   153  PRO153      0.0237
     61  CD        -2.8100    0.1890  110.7730 C.3   153  PRO153      0.0939
     62  N         -1.2570    0.1140  115.2030 N.am  154  MET154     -0.1964
     63  CA        -1.4370   -0.5300  116.4720 C.3   154  MET154      0.1736
     64  C         -0.3770   -1.5750  116.7950 C.2   154  MET154      0.2616
     65  O         -0.3690   -2.1070  117.9230 O.2   154  MET154     -0.2715
     66  CB        -2.8300   -1.1450  116.5420 C.3   154  MET154      0.0427
     67  CG        -4.0090   -0.1720  116.3240 C.3   154  MET154      0.0599
     68  SD        -5.2940   -1.1810  115.4970 S.3   154  MET154     -0.1393
     69  CE        -6.3870    0.1110  114.7380 C.3   154  MET154      0.0692
     70  N          0.4920   -1.8760  115.8250 N.am  155  VAL155     -0.1977
     71  CA         1.4890   -2.9340  115.9700 C.3   155  VAL155      0.1596
     72  C          2.9140   -2.4630  115.5370 C.2   155  VAL155      0.2287
     73  O          3.7360   -3.2430  115.0600 O.2   155  VAL155     -0.2864
     74  CB         1.0700   -4.2290  115.2400 C.3   155  VAL155      0.0276
     75  CG1       -0.1860   -4.7880  115.7960 C.3   155  VAL155      0.0022
     76  CG2        0.8020   -4.0160  113.7890 C.3   155  VAL155      0.0022
     77  N          5.9420   -4.4020  116.9340 N.3   158  TYR158     -0.1241
     78  CA         5.8160   -5.7040  116.2990 C.3   158  TYR158      0.1605
     79  C          6.2030   -5.7460  114.8140 C.2   158  TYR158      0.2264
     80  O          7.1340   -6.4460  114.4190 O.2   158  TYR158     -0.2867
     81  CB         4.3880   -6.2100  116.4940 C.3   158  TYR158      0.0534
     82  CG         4.0890   -7.5690  115.9030 C.ar  158  TYR158     -0.0201
     83  CD1        4.3820   -8.7360  116.6220 C.ar  158  TYR158     -0.0009
     84  CD2        3.4500   -7.6750  114.6840 C.ar  158  TYR158     -0.0009
     85  CE1        4.0820   -9.9560  116.1070 C.ar  158  TYR158      0.0417
     86  CE2        3.1400   -8.8670  114.1650 C.ar  158  TYR158      0.0417
     87  CZ         3.4620  -10.0200  114.8640 C.ar  158  TYR158      0.1957
     88  OH         3.1460  -11.2570  114.3350 O.3   158  TYR158     -0.2866
     89  N          2.0340  -14.8060  107.6810 N.3   190  LEU190     -0.1231
     90  CA         0.6910  -15.1250  108.2070 C.3   190  LEU190      0.1693
     91  C         -0.3760  -13.9740  108.2600 C.2   190  LEU190      0.2593
     92  O         -0.1520  -12.8650  108.7980 O.2   190  LEU190     -0.2718
     93  CB         0.8250  -15.7300  109.6130 C.3   190  LEU190      0.0284
     94  CG         1.4420  -17.1340  109.8010 C.3   190  LEU190      0.0019
     95  CD1        2.4070  -17.5390  108.7190 C.3   190  LEU190      0.0001
     96  CD2        2.0180  -17.4010  111.2400 C.3   190  LEU190      0.0001
     97  N         -1.5480  -14.2460  107.7010 N.am  191  GLY191     -0.1942
     98  CA        -2.7110  -13.4780  108.0540 C.3   191  GLY191      0.2014
     99  C         -3.0680  -13.7180  109.5120 C.2   191  GLY191      0.2638
    100  O         -2.2590  -14.2260  110.2780 O.2   191  GLY191     -0.2714
    101  N         -4.2650  -13.3520  109.9180 N.am  192  LEU192     -0.1977
    102  CA        -4.6870  -13.6770  111.2800 C.3   192  LEU192      0.1596
    103  C         -5.0510  -15.1670  111.4050 C.2   192  LEU192      0.2287
    104  O         -5.7140  -15.7440  110.5350 O.2   192  LEU192     -0.2864
    105  CB        -5.8710  -12.7970  111.6690 C.3   192  LEU192      0.0297
    106  CG        -6.5820  -12.7960  113.0020 C.3   192  LEU192      0.0022
    107  CD1       -5.7960  -12.0000  113.9370 C.3   192  LEU192      0.0001
    108  CD2       -7.9260  -12.1210  112.7660 C.3   192  LEU192      0.0001
    109  N         -5.4110  -18.4070  117.0760 N.3   195  THR195     -0.1218
    110  CA        -4.8430  -18.6480  118.3920 C.3   195  THR195      0.1862
    111  C         -5.5900  -17.8390  119.4580 C.2   195  THR195      0.2287
    112  O         -6.2890  -16.8620  119.1390 O.2   195  THR195     -0.2866
    113  CB        -3.3350  -18.3020  118.4370 C.3   195  THR195      0.1770
    114  OG1       -3.1510  -16.8920  118.2650 O.3   195  THR195     -0.2211
    115  CG2       -2.5830  -19.0540  117.3290 C.3   195  THR195      0.0375
    116  N         -3.9860  -16.2110  121.7390 N.3   197  THR197     -0.1203
    117  CA        -3.3110  -14.9570  121.9030 C.3   197  THR197      0.1994
    118  C         -3.8120  -13.9510  120.8980 C.2   197  THR197      0.2617
    119  O         -4.0860  -12.8190  121.3010 O.2   197  THR197     -0.2717
    120  CB        -1.8350  -15.0960  121.8270 C.3   197  THR197      0.1784
    121  OG1       -1.4690  -16.2610  122.5640 O.3   197  THR197     -0.2211
    122  CG2       -1.1850  -13.9270  122.4510 C.3   197  THR197      0.0376
    123  N         -3.9730  -14.3500  119.6380 N.am  198  ALA198     -0.1979
    124  CA        -4.5220  -13.4440  118.6300 C.3   198  ALA198      0.1597
    125  C         -5.9850  -13.1350  118.8110 C.2   198  ALA198      0.2287
    126  O         -6.3550  -11.9650  118.7250 O.2   198  ALA198     -0.2864
    127  CB        -4.2800  -13.9250  117.2060 C.3   198  ALA198      0.0319
    128  N         -6.1870  -10.5870  121.9050 N.3   201  ALA201     -0.1231
    129  CA        -5.6290   -9.2840  121.4120 C.3   201  ALA201      0.1694
    130  C         -6.3880   -8.5090  120.2940 C.2   201  ALA201      0.2591
    131  O         -6.3490   -7.2830  120.2270 O.2   201  ALA201     -0.2718
    132  CB        -4.1540   -9.4550  120.9920 C.3   201  ALA201      0.0304
    133  N         -7.0480   -9.2340  119.4090 N.am  202  VAL202     -0.1980
    134  CA        -7.6500   -8.6380  118.2490 C.3   202  VAL202      0.1595
    135  C         -9.1460   -8.5130  118.3810 C.2   202  VAL202      0.2287
    136  O         -9.8140   -7.9840  117.4780 O.2   202  VAL202     -0.2864
    137  CB        -7.3380   -9.4830  117.0270 C.3   202  VAL202      0.0276
    138  CG1       -8.5780   -9.6960  116.1370 C.3   202  VAL202      0.0022
    139  CG2       -6.1830   -8.8850  116.2770 C.3   202  VAL202      0.0022
    140  N        -10.1310   -5.8690  115.1260 N.3   206  VAL206     -0.1245
    141  CA        -9.8660   -6.3590  113.7710 C.3   206  VAL206      0.1561
    142  C        -10.9130   -7.3830  113.3370 C.2   206  VAL206      0.2260
    143  O        -10.9200   -8.5430  113.7670 O.2   206  VAL206     -0.2867
    144  CB        -8.4090   -6.8920  113.5940 C.3   206  VAL206      0.0252
    145  CG1       -8.2530   -7.5920  112.2370 C.3   206  VAL206      0.0019
    146  CG2       -7.3650   -5.7580  113.7740 C.3   206  VAL206      0.0019
    147  N        -11.7960   -9.3540  110.8870 N.3   208  MET208     -0.1245
    148  CA       -11.6330  -10.3370  109.8160 C.3   208  MET208      0.1570
    149  C        -11.7740  -11.7220  110.4000 C.2   208  MET208      0.2261
    150  O        -12.2610  -11.8830  111.5390 O.2   208  MET208     -0.2867
    151  CB       -10.3260  -10.1670  109.0150 C.3   208  MET208      0.0387
    152  CG        -9.0140  -10.5190  109.7190 C.3   208  MET208      0.0595
    153  SD        -7.6870   -9.2470  109.5410 S.3   208  MET208     -0.1393
    154  CE        -7.3250   -9.2630  107.7560 C.3   208  MET208      0.0692
@<TRIPOS>BOND
     1    37    35    1
     2    35    36    1
     3    35    34    1
     4    33    32    2
     5    34    31    1
     6    31    32    1
     7    31    30    1
     8    54    53    1
     9    32    38   am
    10    27    26    2
    11    89    90    1
    12    97    98    1
    13    97    91   am
    14    52    53   ar
    15    52    50   ar
    16   154   153    1
    17    30    26   am
    18    98    99    1
    19    53    51   ar
    20    26    25    1
    21    90    91    1
    22    90    93    1
    23    91    92    2
    24    50    48   ar
    25    95    94    1
    26    38    39    1
    27   151   152    1
    28   151   148    1
    29    51    49   ar
    30    40    39    1
    31    40    41    2
    32    43    44    1
    33    25    24    1
    34    25    28    1
    35    39    42    1
    36    99   101   am
    37    99   100    2
    38   153   152    1
    39    93    94    1
    40    48    49   ar
    41    48    47    1
    42    94    96    1
    43   148   149    1
    44   148   147    1
    45   101   102    1
    46    44    47    1
    47    44    45    1
    48   149   150    2
    49   104   103    2
    50    28    29    1
    51    61    55    1
    52    61    60    1
    53    45    55   am
    54    45    46    2
    55   102   103    1
    56   102   105    1
    57    55    56    1
    58   105   106    1
    59    60    59    1
    60   145   144    1
    61    59    56    1
    62   108   106    1
    63    56    57    1
    64   106   107    1
    65   142   143    2
    66   142   141    1
    67   144   141    1
    68   144   146    1
    69   141   140    1
    70    76    74    1
    71    58    57    2
    72    57    62   am
    73    86    84   ar
    74    86    87   ar
    75    88    87    1
    76    80    79    2
    77    84    82   ar
    78    69    68    1
    79    79    78    1
    80    87    85   ar
    81    73    72    2
    82    62    63    1
    83    74    75    1
    84    74    71    1
    85    68    67    1
    86    72    71    1
    87    70    71    1
    88    70    64   am
    89    82    81    1
    90    82    83   ar
    91    85    83   ar
    92   138   137    1
    93   139   137    1
    94    78    81    1
    95    78    77    1
    96    67    66    1
    97    63    66    1
    98    63    64    1
    99    22    21    1
   100    64    65    2
   101   137   134    1
   102   109   110    1
   103   127   124    1
   104   115   113    1
   105   136   135    2
   106     7     5    1
   107    21    23    1
   108    21    20    1
   109   134   135    1
   110   134   133    1
   111   114   113    1
   112   110   113    1
   113   110   111    1
   114   124   125    1
   115   124   123    1
   116   126   125    2
   117     8     6    1
   118    20    17    1
   119     5     6    1
   120     5     2    1
   121   112   111    2
   122   133   130   am
   123   123   118   am
   124    17    16    1
   125    17    18    1
   126     1     2    1
   127     2     3    1
   128    14    13    1
   129   131   130    2
   130   130   129    1
   131    18    19    2
   132    15    13    1
   133   118   119    2
   134   118   117    1
   135    13    10    1
   136   132   129    1
   137   129   128    1
   138     3     4    2
   139   116   117    1
   140   120   117    1
   141   120   122    1
   142   120   121    1
   143    10    11    1
   144    10     9    1
   145    11    12    2
