@<TRIPOS>MOLECULE
tmp/3bz0A01.pdb
 140 137 0 0 0
SMALL
GASTEIGER

@<TRIPOS>ATOM
      1  N        -25.8690    3.8480   13.4740 N.3    23  ARG23      -0.1245
      2  CA       -24.3840    3.9660   13.4290 C.3    23  ARG23       0.1563
      3  C        -23.5980    2.7460   14.0000 C.2    23  ARG23       0.2260
      4  O        -22.3610    2.6700   13.8810 O.2    23  ARG23      -0.2867
      5  CB       -23.8940    5.2580   14.0980 C.3    23  ARG23       0.0307
      6  CG       -24.7440    6.5180   13.8490 C.3    23  ARG23       0.0489
      7  CD       -24.3610    7.5990   14.8500 C.3    23  ARG23       0.2205
      8  NE       -23.6700    7.0050   16.0020 N.pl3  23  ARG23      -0.0865
      9  CZ       -23.8510    7.3540   17.2770 C.cat  23  ARG23       0.5346
     10  NH1      -24.7180    8.3080   17.6060 N.pl3  23  ARG23       0.1354
     11  NH2      -23.1670    6.7380   18.2340 N.pl3  23  ARG23       0.1354
     12  N        -32.3230   11.0270   38.7220 N.3    57  ILE57      -0.1245
     13  CA       -32.7610   12.0240   37.8020 C.3    57  ILE57       0.1561
     14  C        -32.6640   13.4060   38.4380 C.2    57  ILE57       0.2260
     15  O        -32.1770   14.3330   37.7780 O.2    57  ILE57      -0.2867
     16  CB       -34.0850   11.6820   37.1290 C.3    57  ILE57       0.0252
     17  CG1      -34.1130   12.3490   35.7620 C.3    57  ILE57       0.0019
     18  CG2      -35.2450   12.0410   38.0020 C.3    57  ILE57       0.0019
     19  CD1      -33.0530   11.7520   34.7500 C.3    57  ILE57       0.0001
     20  N        -28.9160   14.5180   38.5880 N.3    60  GLU60      -0.1245
     21  CA       -28.4910   14.9340   37.2380 C.3    60  GLU60       0.1567
     22  C        -29.1540   16.2500   36.8070 C.2    60  GLU60       0.2260
     23  O        -28.5770   17.0490   36.0850 O.2    60  GLU60      -0.2867
     24  CB       -28.8210   13.8580   36.2380 C.3    60  GLU60       0.0388
     25  CG       -28.2350   14.1540   34.8990 C.3    60  GLU60       0.1160
     26  CD       -29.1790   13.8720   33.7020 C.2    60  GLU60       0.3649
     27  OE1      -30.3890   14.3020   33.7630 O.co2  60  GLU60      -0.2457
     28  OE2      -28.6490   13.2580   32.7150 O.co2  60  GLU60      -0.2457
     29  N        -24.2940    8.0010   35.4730 N.3    81  ILE81      -0.1231
     30  CA       -25.1060    8.0850   34.2810 C.3    81  ILE81       0.1692
     31  C        -24.4510    8.8420   33.1230 C.2    81  ILE81       0.2592
     32  O        -24.8340    8.6380   31.9750 O.2    81  ILE81      -0.2718
     33  CB       -26.5390    8.5800   34.6520 C.3    81  ILE81       0.0266
     34  CG1      -27.4550    7.3820   34.7260 C.3    81  ILE81       0.0019
     35  CG2      -27.1080    9.6190   33.6810 C.3    81  ILE81       0.0020
     36  CD1      -28.2570    7.3690   35.9500 C.3    81  ILE81       0.0001
     37  N        -23.4690    9.6920   33.4140 N.am   82  TRP82      -0.1976
     38  CA       -22.6860   10.3460   32.3600 C.3    82  TRP82       0.1640
     39  C        -21.1840    9.9660   32.4030 C.2    82  TRP82       0.2290
     40  O        -20.3630   10.5910   31.7150 O.2    82  TRP82      -0.2864
     41  CB       -22.7930   11.8720   32.4440 C.3    82  TRP82       0.0576
     42  CG       -24.1160   12.5240   32.0870 C.ar   82  TRP82       0.0006
     43  CD1      -25.1920   12.6810   32.8960 C.ar   82  TRP82       0.0946
     44  CD2      -24.4460   13.1730   30.8600 C.ar   82  TRP82       0.0152
     45  NE1      -26.1930   13.3590   32.2440 N.ar   82  TRP82      -0.2442
     46  CE2      -25.7550   13.6770   30.9910 C.ar   82  TRP82       0.0810
     47  CE3      -23.7680   13.3650   29.6570 C.ar   82  TRP82       0.0012
     48  CZ2      -26.3980   14.3720   29.9680 C.ar   82  TRP82       0.0191
     49  CZ3      -24.4010   14.0660   28.6350 C.ar   82  TRP82       0.0001
     50  CH2      -25.7050   14.5570   28.7960 C.ar   82  TRP82       0.0015
     51  N        -19.6400    7.6770   31.0940 N.3    84  GLU84      -0.1231
     52  CA       -19.1980    6.8870   29.9790 C.3    84  GLU84       0.1699
     53  C        -18.4120    7.7070   28.9800 C.2    84  GLU84       0.2592
     54  O        -17.3350    7.2890   28.5480 O.2    84  GLU84      -0.2718
     55  CB       -20.4190    6.2610   29.3180 C.3    84  GLU84       0.0402
     56  CG       -20.1900    4.8590   28.7740 C.3    84  GLU84       0.1161
     57  CD       -20.9450    4.6130   27.4740 C.2    84  GLU84       0.3649
     58  OE1      -21.3440    5.6120   26.8100 O.co2  84  GLU84      -0.2457
     59  OE2      -21.1260    3.4240   27.1190 O.co2  84  GLU84      -0.2457
     60  N        -18.9630    8.8780   28.6500 N.am   85  TRP85      -0.1976
     61  CA       -18.4170    9.8090   27.6800 C.3    85  TRP85       0.1640
     62  C        -17.1940   10.5050   28.1610 C.2    85  TRP85       0.2290
     63  O        -16.3660   10.9490   27.3600 O.2    85  TRP85      -0.2864
     64  CB       -19.4440   10.8850   27.3980 C.3    85  TRP85       0.0576
     65  CG       -20.4210   10.4670   26.3890 C.ar   85  TRP85       0.0006
     66  CD1      -21.7530   10.3190   26.5660 C.ar   85  TRP85       0.0946
     67  CD2      -20.1450   10.1270   25.0240 C.ar   85  TRP85       0.0152
     68  NE1      -22.3430    9.9130   25.3940 N.ar   85  TRP85      -0.2442
     69  CE2      -21.3780    9.7840   24.4270 C.ar   85  TRP85       0.0810
     70  CE3      -18.9650   10.0760   24.2440 C.ar   85  TRP85       0.0012
     71  CZ2      -21.4860    9.3870   23.0690 C.ar   85  TRP85       0.0191
     72  CZ3      -19.0610    9.6800   22.8970 C.ar   85  TRP85       0.0001
     73  CH2      -20.3260    9.3440   22.3230 C.ar   85  TRP85       0.0015
     74  N        -22.0120   15.0810   21.9910 N.3   189  LEU189     -0.1245
     75  CA       -23.4420   14.8330   21.7730 C.3   189  LEU189      0.1561
     76  C        -24.1510   16.1130   21.3380 C.2   189  LEU189      0.2260
     77  O        -24.1360   17.1460   22.0630 O.2   189  LEU189     -0.2867
     78  CB       -24.1350   14.1680   22.9730 C.3   189  LEU189      0.0270
     79  CG       -25.5520   13.5150   22.8070 C.3   189  LEU189      0.0019
     80  CD1      -25.7610   12.6240   21.5560 C.3   189  LEU189      0.0001
     81  CD2      -25.9470   12.6970   24.0560 C.3   189  LEU189      0.0001
     82  N        -29.6920   15.9350   22.6540 N.3   192  CYS192     -0.1221
     83  CA       -30.8880   15.2240   22.2240 C.3   192  CYS192      0.1808
     84  C        -32.1150   16.0290   22.6130 C.2   192  CYS192      0.2601
     85  O        -33.0740   16.1210   21.8430 O.2   192  CYS192     -0.2717
     86  CB       -30.9510   13.8040   22.7770 C.3   192  CYS192      0.0970
     87  SG       -29.9620   12.6040   21.8180 S.3   192  CYS192     -0.0800
     88  N        -32.0870   16.6400   23.7930 N.am  193  HIS193     -0.1975
     89  CA       -33.1540   17.5440   24.1960 C.3   193  HIS193      0.1656
     90  C        -32.9310   18.9680   23.6640 C.2   193  HIS193      0.2291
     91  O        -32.4240   19.8700   24.3670 O.2   193  HIS193     -0.2864
     92  CB       -33.3380   17.4550   25.6940 C.3   193  HIS193      0.0771
     93  CG       -33.1910   16.0510   26.1770 C.ar  193  HIS193      0.0820
     94  ND1      -32.2690   15.6790   27.1290 N.ar  193  HIS193     -0.2267
     95  CD2      -33.7780   14.9060   25.7520 C.ar  193  HIS193      0.1154
     96  CE1      -32.3220   14.3720   27.2990 C.ar  193  HIS193      0.1986
     97  NE2      -33.2290   13.8800   26.4780 N.ar  193  HIS193     -0.2212
     98  N        -34.9950    3.0110   26.8340 N.3   218  LEU218     -0.1231
     99  CA       -34.0600    3.4830   27.8340 C.3   218  LEU218      0.1693
    100  C        -34.1680    4.9580   28.2180 C.2   218  LEU218      0.2592
    101  O        -34.0470    5.2810   29.3940 O.2   218  LEU218     -0.2718
    102  CB       -32.6140    3.0640   27.5160 C.3   218  LEU218      0.0284
    103  CG       -32.2520    1.9730   28.5620 C.3   218  LEU218      0.0019
    104  CD1      -32.3900    0.5530   28.0190 C.3   218  LEU218      0.0001
    105  CD2      -30.8400    2.1780   29.2600 C.3   218  LEU218      0.0001
    106  N        -34.4420    5.8400   27.2520 N.am  219  GLY219     -0.1957
    107  CA       -34.2710    7.2660   27.4600 C.3   219  GLY219      0.1869
    108  C        -35.5100    8.0170   27.8710 C.2   219  GLY219      0.2309
    109  O        -35.4570    8.8850   28.7570 O.2   219  GLY219     -0.2863
    110  N        -36.8750    8.4550   31.5960 N.3   222  PHE222     -0.1227
    111  CA       -36.0300    9.4320   32.2940 C.3   222  PHE222      0.1736
    112  C        -36.3660   10.8720   31.9380 C.2   222  PHE222      0.2595
    113  O        -36.6990   11.6770   32.8120 O.2   222  PHE222     -0.2718
    114  CB       -34.5910    9.2270   31.8920 C.3   222  PHE222      0.0547
    115  CG       -33.8060    8.4030   32.8430 C.ar  222  PHE222     -0.0202
    116  CD1      -33.7690    7.0010   32.7020 C.ar  222  PHE222     -0.0042
    117  CD2      -33.0700    9.0190   33.8630 C.ar  222  PHE222     -0.0042
    118  CE1      -33.0120    6.2000   33.5750 C.ar  222  PHE222     -0.0003
    119  CE2      -32.3260    8.2570   34.7320 C.ar  222  PHE222     -0.0003
    120  CZ       -32.2830    6.8240   34.5910 C.ar  222  PHE222     -0.0000
    121  N        -36.2540   11.1770   30.6410 N.am  223  ASN223     -0.1974
    122  CA       -36.5800   12.4910   30.0610 C.3   223  ASN223      0.1688
    123  C        -37.8710   13.0660   30.5830 C.2   223  ASN223      0.2292
    124  O        -37.8850   14.2440   31.0320 O.2   223  ASN223     -0.2864
    125  CB       -36.6660   12.4040   28.5270 C.3   223  ASN223      0.1181
    126  CG       -35.4810   11.7470   27.9390 C.2   223  ASN223      0.2629
    127  OD1      -35.5360   11.1690   26.8440 O.2   223  ASN223     -0.2716
    128  ND2      -34.3770   11.7880   28.6790 N.am  223  ASN223     -0.0877
    129  N        -34.8460    0.4080   19.4990 N.3   255  TYR255     -0.1241
    130  CA       -33.8490   -0.4710   18.8440 C.3   255  TYR255      0.1605
    131  C        -34.3240   -1.9140   18.8360 C.2   255  TYR255      0.2264
    132  O        -34.9890   -2.3390   19.7640 O.2   255  TYR255     -0.2867
    133  CB       -32.5040   -0.3870   19.5600 C.3   255  TYR255      0.0534
    134  CG       -31.7160    0.8750   19.2790 C.ar  255  TYR255     -0.0201
    135  CD1      -30.9200    0.9820   18.1390 C.ar  255  TYR255     -0.0009
    136  CD2      -31.7570    1.9540   20.1560 C.ar  255  TYR255     -0.0009
    137  CE1      -30.1650    2.1470   17.8870 C.ar  255  TYR255      0.0417
    138  CE2      -31.0380    3.1160   19.9100 C.ar  255  TYR255      0.0417
    139  CZ       -30.2300    3.2080   18.7830 C.ar  255  TYR255      0.1957
    140  OH       -29.4840    4.3490   18.5390 O.3   255  TYR255     -0.2866
@<TRIPOS>BOND
     1     2     1    1
     2     2     3    1
     3     2     5    1
     4     6     5    1
     5     6     7    1
     6     4     3    2
     7     7     8    1
     8     8     9    2
     9     9    10    1
    10     9    11    1
    11   137   135   ar
    12   137   139   ar
    13   135   134   ar
    14   140   139    1
    15   139   138   ar
    16   131   130    1
    17   131   132    2
    18   130   129    1
    19   130   133    1
    20   134   133    1
    21   134   136   ar
    22   138   136   ar
    23    76    75    1
    24    76    77    2
    25    80    79    1
    26    75    74    1
    27    75    78    1
    28    87    86    1
    29    85    84    2
    30    83    84    1
    31    83    82    1
    32    83    86    1
    33    73    72   ar
    34    73    71   ar
    35    84    88   am
    36    79    78    1
    37    79    81    1
    38    72    70   ar
    39    71    69   ar
    40    90    89    1
    41    90    91    2
    42    88    89    1
    43    89    92    1
    44    70    67   ar
    45    69    67   ar
    46    69    68   ar
    47    67    65   ar
    48    68    66   ar
    49    92    93    1
    50    95    93   ar
    51    95    97   ar
    52    93    94   ar
    53    65    66   ar
    54    65    64    1
    55    97    96   ar
    56    58    57   ar
    57    98    99    1
    58   127   126    2
    59    59    57   ar
    60    94    96   ar
    61   106   107    1
    62   106   100   am
    63    63    62    2
    64    64    61    1
    65   107   108    1
    66    57    56    1
    67   102    99    1
    68   102   103    1
    69    61    62    1
    70    61    60    1
    71    99   100    1
    72   108   109    2
    73   126   125    1
    74   126   128   am
    75   104   103    1
    76   100   101    2
    77   125   122    1
    78    54    53    2
    79   103   105    1
    80    49    50   ar
    81    49    47   ar
    82    60    53   am
    83    56    55    1
    84    50    48   ar
    85    53    52    1
    86    55    52    1
    87    47    44   ar
    88    48    46   ar
    89    52    51    1
    90   122   123    1
    91   122   121    1
    92   123   124    2
    93   121   112   am
    94    44    46   ar
    95    44    42   ar
    96    46    45   ar
    97   110   111    1
    98    40    39    2
    99   114   111    1
   100   114   115    1
   101   112   111    1
   102   112   113    2
   103    32    31    2
   104    42    41    1
   105    42    43   ar
   106    45    43   ar
   107    38    39    1
   108    38    41    1
   109    38    37    1
   110   116   115   ar
   111   116   118   ar
   112    28    26   ar
   113   115   117   ar
   114    31    37   am
   115    31    30    1
   116   118   120   ar
   117    35    33    1
   118    26    27   ar
   119    26    25    1
   120   117   119   ar
   121    30    33    1
   122    30    29    1
   123   120   119   ar
   124    33    34    1
   125    34    36    1
   126    19    17    1
   127    25    24    1
   128    17    16    1
   129    23    22    2
   130    24    21    1
   131    22    21    1
   132    16    13    1
   133    16    18    1
   134    21    20    1
   135    15    14    2
   136    13    14    1
   137    13    12    1
