@<TRIPOS>MOLECULE
tmp/3bz3A00.pdb
 181 169 0 0 0
SMALL
GASTEIGER

@<TRIPOS>ATOM
      1  N         14.0920    4.9460   -5.1470 N.3    13  ARG13      -0.1245
      2  CA        12.7390    4.4230   -5.3250 C.3    13  ARG13       0.1563
      3  C         11.8640    4.7300   -4.1140 C.2    13  ARG13       0.2260
      4  O         12.3630    5.0640   -3.0440 O.2    13  ARG13      -0.2867
      5  CB        12.7560    2.9160   -5.6050 C.3    13  ARG13       0.0307
      6  CG        13.2220    2.0500   -4.4410 C.3    13  ARG13       0.0489
      7  CD        13.3080    0.5820   -4.8470 C.3    13  ARG13       0.2205
      8  NE        14.4580   -0.0870   -4.2390 N.pl3  13  ARG13      -0.0865
      9  CZ        14.3880   -0.8980   -3.1890 C.cat  13  ARG13       0.5346
     10  NH1       13.2160   -1.1770   -2.6370 N.pl3  13  ARG13       0.1354
     11  NH2       15.4970   -1.4160   -2.6770 N.pl3  13  ARG13       0.1354
     12  N          9.6210    3.8510   -0.9970 N.3    15  ILE15      -0.1231
     13  CA         9.6180    2.7860    0.0000 C.3    15  ILE15       0.1692
     14  C          8.4180    2.8860    0.9490 C.2    15  ILE15       0.2593
     15  O          8.3890    2.2340    1.9950 O.2    15  ILE15      -0.2718
     16  CB        10.9190    2.7860    0.8370 C.3    15  ILE15       0.0266
     17  CG1       11.0340    4.0700    1.6640 C.3    15  ILE15       0.0019
     18  CG2       12.1450    2.5970   -0.0670 C.3    15  ILE15       0.0020
     19  CD1       12.3430    4.1990    2.4090 C.3    15  ILE15       0.0001
     20  N          7.4280    3.6940    0.5870 N.am   16  GLY16      -0.1942
     21  CA         6.1830    3.7540    1.3450 C.3    16  GLY16       0.2014
     22  C          5.4810    5.0890    1.2350 C.2    16  GLY16       0.2638
     23  O          6.0030    6.0350    0.6460 O.2    16  GLY16      -0.2714
     24  N          4.2930    5.1670    1.8210 N.am   17  GLU17      -0.1977
     25  CA         3.4620    6.3540    1.7060 C.3    17  GLU17       0.1602
     26  C          3.1950    6.9530    3.0700 C.2    17  GLU17       0.2287
     27  O          2.6300    6.3050    3.9490 O.2    17  GLU17      -0.2864
     28  CB         2.1370    6.0090    1.0300 C.3    17  GLU17       0.0415
     29  CG         2.2300    5.9740   -0.4780 C.3    17  GLU17       0.1163
     30  CD         1.5030    4.7850   -1.0670 C.2    17  GLU17       0.3649
     31  OE1        2.0050    3.6480   -0.8900 O.co2  17  GLU17      -0.2457
     32  OE2        0.4370    4.9910   -1.6990 O.co2  17  GLU17      -0.2457
     33  N          7.4170    8.3560    0.6700 N.3    23  VAL23      -0.1245
     34  CA         8.7430    8.2480    1.2430 C.3    23  VAL23       0.1561
     35  C          9.6130    7.4710    0.2700 C.2    23  VAL23       0.2260
     36  O          9.1650    6.4900   -0.3330 O.2    23  VAL23      -0.2867
     37  CB         8.7110    7.5350    2.6130 C.3    23  VAL23       0.0252
     38  CG1       10.0790    7.6070    3.2850 C.3    23  VAL23       0.0019
     39  CG2        7.6370    8.1520    3.4970 C.3    23  VAL23       0.0019
     40  N         13.7440    6.0230   -0.5640 N.3    25  GLN25      -0.1245
     41  CA        15.1360    5.8630   -0.1880 C.3    25  GLN25       0.1566
     42  C         16.0100    6.5940   -1.2020 C.2    25  GLN25       0.2260
     43  O         15.5600    6.9270   -2.2930 O.2    25  GLN25      -0.2867
     44  CB        15.4990    4.3820   -0.1130 C.3    25  GLN25       0.0367
     45  CG        15.7550    3.7200   -1.4620 C.3    25  GLN25       0.0905
     46  CD        15.8960    2.2110   -1.3500 C.2    25  GLN25       0.2608
     47  OE1       15.8210    1.6420   -0.2530 O.2    25  GLN25      -0.2717
     48  NE2       16.0840    1.5530   -2.4880 N.am   25  GLN25      -0.0878
     49  N         16.5750    8.0490    3.9920 N.3    35  ALA35      -0.1245
     50  CA        15.1610    8.0910    3.6570 C.3    35  ALA35       0.1562
     51  C         14.7220    9.5430    3.4840 C.2    35  ALA35       0.2260
     52  O         15.1810   10.4370    4.2020 O.2    35  ALA35      -0.2867
     53  CB        14.3460    7.4220    4.7430 C.3    35  ALA35       0.0290
     54  N         11.3020   11.6900    3.4150 N.3    37  LYS37      -0.1245
     55  CA         9.8920   12.0510    3.4980 C.3    37  LYS37       0.1561
     56  C          9.6360   13.2500    2.6030 C.2    37  LYS37       0.2260
     57  O         10.3130   14.2610    2.7190 O.2    37  LYS37      -0.2867
     58  CB         9.4970   12.3970    4.9370 C.3    37  LYS37       0.0271
     59  CG         9.6490   11.2500    5.9380 C.3    37  LYS37       0.0035
     60  CD         9.6010   11.7510    7.3820 C.3    37  LYS37       0.0206
     61  CE         8.2250   12.3170    7.7410 C.3    37  LYS37       0.1093
     62  NZ         8.1350   12.7260    9.1720 N.3    37  LYS37      -0.1314
     63  N         15.5670    5.8710   14.6510 N.3    67  VAL67      -0.1245
     64  CA        16.0510    6.5250   13.4450 C.3    67  VAL67       0.1561
     65  C         16.4010    7.9970   13.6890 C.2    67  VAL67       0.2260
     66  O         15.7090    8.7330   14.4200 O.2    67  VAL67      -0.2867
     67  CB        15.0510    6.4110   12.2760 C.3    67  VAL67       0.0252
     68  CG1       15.0490    4.9920   11.7180 C.3    67  VAL67       0.0019
     69  CG2       13.6500    6.8370   12.7150 C.3    67  VAL67       0.0019
     70  N         16.0480   11.5900    6.5870 N.3    82  MET82      -0.1230
     71  CA        16.1820   10.7060    7.7340 C.3    82  MET82       0.1702
     72  C         17.2200    9.6210    7.4430 C.2    82  MET82       0.2592
     73  O         17.5430    9.3550    6.2870 O.2    82  MET82      -0.2718
     74  CB        14.8310   10.0480    8.0270 C.3    82  MET82       0.0401
     75  CG        13.7190   11.0340    8.3810 C.3    82  MET82       0.0596
     76  SD        14.0150   11.8760    9.9470 S.3    82  MET82      -0.1393
     77  CE        13.8430   10.4860   11.0840 C.3    82  MET82       0.0692
     78  N         17.7470    9.0130    8.5000 N.am   83  GLU83      -0.1966
     79  CA        18.5720    7.8130    8.3730 C.3    83  GLU83       0.1733
     80  C         17.7780    6.6730    7.7150 C.2    83  GLU83       0.2616
     81  O         16.5820    6.5020    7.9840 O.2    83  GLU83      -0.2715
     82  CB        19.1010    7.3960    9.7560 C.3    83  GLU83       0.0429
     83  CG        19.4270    5.9150    9.9100 C.3    83  GLU83       0.1163
     84  CD        19.6940    5.5000   11.3620 C.2    83  GLU83       0.3649
     85  OE1       19.3750    6.2700   12.2990 O.co2  83  GLU83      -0.2457
     86  OE2       20.2400    4.3940   11.5580 O.co2  83  GLU83      -0.2457
     87  N         18.4260    5.9550    6.7930 N.am   84  LEU84      -0.1963
     88  CA        17.8110    4.7970    6.1410 C.3    84  LEU84       0.1728
     89  C         18.1050    3.5240    6.9110 C.2    84  LEU84       0.2616
     90  O         19.2580    3.2330    7.2320 O.2    84  LEU84      -0.2715
     91  CB        18.3000    4.6240    4.6970 C.3    84  LEU84       0.0311
     92  CG        17.5170    3.5620    3.9060 C.3    84  LEU84       0.0022
     93  CD1       16.0710    4.0010    3.6760 C.3    84  LEU84       0.0001
     94  CD2       18.1950    3.2120    2.5870 C.3    84  LEU84       0.0001
     95  N         17.0490    2.7750    7.2120 N.am   85  CYS85      -0.1954
     96  CA        17.1860    1.4050    7.6780 C.3    85  CYS85       0.1843
     97  C         17.1460    0.4740    6.4710 C.2    85  CYS85       0.2626
     98  O         16.0860    0.1950    5.9190 O.2    85  CYS85      -0.2714
     99  CB        16.0740    1.0730    8.6770 C.3    85  CYS85       0.0997
    100  SG        16.1790    2.0170   10.2290 S.3    85  CYS85      -0.0797
    101  N         18.3270    0.0790    6.0120 N.am   86  THR86      -0.1936
    102  CA        18.5060   -0.5460    4.7000 C.3    86  THR86       0.2028
    103  C         17.5210   -1.6820    4.3950 C.2    86  THR86       0.2642
    104  O         17.0350   -1.8090    3.2610 O.2    86  THR86      -0.2714
    105  CB        19.9320   -1.0940    4.5920 C.3    86  THR86       0.1808
    106  OG1       20.8440    0.0030    4.4790 O.3    86  THR86      -0.2208
    107  CG2       20.0840   -2.0050    3.3820 C.3    86  THR86       0.0379
    108  N         17.2530   -2.5170    5.3980 N.am   87  LEU87      -0.1963
    109  CA        16.5690   -3.7920    5.1870 C.3    87  LEU87       0.1728
    110  C         15.0480   -3.6610    5.2770 C.2    87  LEU87       0.2617
    111  O         14.3180   -4.6330    5.0740 O.2    87  LEU87      -0.2715
    112  CB        17.0620   -4.8310    6.1980 C.3    87  LEU87       0.0311
    113  CG        18.5180   -5.2700    6.0460 C.3    87  LEU87       0.0022
    114  CD1       18.7900   -6.5320    6.8520 C.3    87  LEU87       0.0001
    115  CD2       18.8590   -5.4880    4.5800 C.3    87  LEU87       0.0001
    116  N         14.5760   -2.4660    5.6110 N.am   88  GLY88      -0.1940
    117  CA        13.1630   -2.1370    5.4670 C.3    88  GLY88       0.2014
    118  C         12.3090   -2.4720    6.6770 C.2    88  GLY88       0.2638
    119  O         12.7690   -2.3940    7.8200 O.2    88  GLY88      -0.2714
    120  N         11.0570   -2.8380    6.4120 N.am   89  GLU89      -0.1977
    121  CA        10.0650   -3.0380    7.4570 C.3    89  GLU89       0.1602
    122  C         10.2740   -4.3600    8.1830 C.2    89  GLU89       0.2287
    123  O         10.5750   -5.3840    7.5650 O.2    89  GLU89      -0.2864
    124  CB         8.6610   -3.0170    6.8530 C.3    89  GLU89       0.0415
    125  CG         8.3200   -1.7170    6.1380 C.3    89  GLU89       0.1163
    126  CD         7.0910   -1.8440    5.2530 C.2    89  GLU89       0.3649
    127  OE1        6.7080   -2.9840    4.9120 O.co2  89  GLU89      -0.2457
    128  OE2        6.5030   -0.8040    4.9050 O.co2  89  GLU89      -0.2457
    129  N          4.7310   -2.6190   12.9340 N.3   133  ARG133     -0.1231
    130  CA         4.6640   -1.8860   11.6690 C.3   133  ARG133      0.1694
    131  C          5.5680   -0.6560   11.7070 C.2   133  ARG133      0.2592
    132  O          5.9480   -0.1130   10.6650 O.2   133  ARG133     -0.2718
    133  CB         3.2260   -1.4790   11.3050 C.3   133  ARG133      0.0321
    134  CG         2.4470   -0.8390   12.4390 C.3   133  ARG133      0.0489
    135  CD         1.2780    0.0190   11.9610 C.3   133  ARG133      0.2205
    136  NE         0.7190    0.7830   13.0840 N.pl3 133  ARG133     -0.0865
    137  CZ        -0.1300    0.2890   13.9850 C.cat 133  ARG133      0.5346
    138  NH1       -0.5660   -0.9590   13.8830 N.pl3 133  ARG133      0.1354
    139  NH2       -0.5210    1.0340   15.0110 N.pl3 133  ARG133      0.1354
    140  N          5.9140   -0.2260   12.9140 N.am  134  ASN134     -0.1974
    141  CA         6.6590    1.0080   13.1040 C.3   134  ASN134      0.1688
    142  C          8.0880    0.7120   13.5310 C.2   134  ASN134      0.2292
    143  O          8.8010    1.5880   14.0240 O.2   134  ASN134     -0.2864
    144  CB         5.9540    1.8880   14.1320 C.3   134  ASN134      0.1181
    145  CG         4.6630    2.4700   13.6050 C.2   134  ASN134      0.2629
    146  OD1        4.5230    2.7190   12.3990 O.2   134  ASN134     -0.2716
    147  ND2        3.6990    2.6720   14.4970 N.am  134  ASN134     -0.0877
    148  N         11.8240   -0.9210   12.0250 N.3   136  LEU136     -0.1245
    149  CA        12.5650   -1.0580   10.7870 C.3   136  LEU136      0.1561
    150  C         13.8870   -1.7760   11.0600 C.2   136  LEU136      0.2260
    151  O         14.3750   -1.7960   12.1930 O.2   136  LEU136     -0.2867
    152  CB        12.8340    0.3270   10.1860 C.3   136  LEU136      0.0270
    153  CG        11.5970    1.1880    9.8860 C.3   136  LEU136      0.0019
    154  CD1       11.9970    2.6330    9.7150 C.3   136  LEU136      0.0001
    155  CD2       10.8490    0.6880    8.6520 C.3   136  LEU136      0.0001
    156  N         10.8740    3.4370   14.0450 N.3   146  GLY146     -0.1210
    157  CA        10.7530    4.2590   12.8510 C.3   146  GLY146      0.1956
    158  C         10.4430    5.7070   13.1780 C.2   146  GLY146      0.2611
    159  O         10.3010    6.0790   14.3420 O.2   146  GLY146     -0.2717
    160  N         10.3180    6.5180   12.1360 N.am  147  ASP147     -0.1973
    161  CA         9.9480    7.9170   12.2740 C.3   147  ASP147      0.1709
    162  C          8.6210    8.0520   13.0110 C.2   147  ASP147      0.2293
    163  O          7.6530    7.3410   12.7120 O.2   147  ASP147     -0.2864
    164  CB         9.8440    8.5570   10.8850 C.3   147  ASP147      0.1436
    165  CG         9.4600   10.0240   10.9420 C.2   147  ASP147      0.3671
    166  OD1       10.2690   10.8310   11.4280 O.co2 147  ASP147     -0.2456
    167  OD2        8.3610   10.3760   10.4720 O.co2 147  ASP147     -0.2456
    168  N          5.6410    9.3460   10.8070 N.3   150  LEU150     -0.1231
    169  CA         5.1820    8.2290    9.9790 C.3   150  LEU150      0.1693
    170  C          4.4990    7.1300   10.7970 C.2   150  LEU150      0.2592
    171  O          3.7490    6.3270   10.2470 O.2   150  LEU150     -0.2718
    172  CB         6.3510    7.6240    9.1910 C.3   150  LEU150      0.0284
    173  CG         6.9460    8.5190    8.1000 C.3   150  LEU150      0.0019
    174  CD1        8.2130    7.9080    7.5600 C.3   150  LEU150      0.0001
    175  CD2        5.9290    8.7480    6.9920 C.3   150  LEU150      0.0001
    176  N          4.7900    7.0740   12.0950 N.am  151  SER151     -0.1952
    177  CA         4.2340    6.0380   12.9750 C.3   151  SER151      0.1924
    178  C          2.7860    6.3320   13.3650 C.2   151  SER151      0.2314
    179  O          2.0420    5.4260   13.7610 O.2   151  SER151     -0.2863
    180  CB         5.0860    5.8940   14.2430 C.3   151  SER151      0.2116
    181  OG         6.3490    5.2960   13.9680 O.3   151  SER151     -0.2180
@<TRIPOS>BOND
     1     5     2    1
     2     5     6    1
     3     2     1    1
     4     2     3    1
     5     7     6    1
     6     7     8    1
     7     8     9    2
     8     3     4    2
     9     9    11    1
    10     9    10    1
    11    48    46   am
    12    43    42    2
    13    32    30   ar
    14    45    46    1
    15    45    44    1
    16    46    47    2
    17    42    41    1
    18    30    31   ar
    19    30    29    1
    20    12    13    1
    21    40    41    1
    22    29    28    1
    23    36    35    2
    24    41    44    1
    25    18    16    1
    26    13    16    1
    27    13    14    1
    28    35    34    1
    29    20    14   am
    30    20    21    1
    31    23    22    2
    32    33    34    1
    33    16    17    1
    34    14    15    2
    35    28    25    1
    36    22    21    1
    37    22    24   am
    38    34    37    1
    39    17    19    1
    40    25    24    1
    41    25    26    1
    42    94    92    1
    43    56    57    2
    44    56    55    1
    45    37    38    1
    46    37    39    1
    47    26    27    2
    48   104   103    2
    49   107   105    1
    50    54    55    1
    51    51    50    1
    52    51    52    2
    53    55    58    1
    54    50    49    1
    55    50    53    1
    56    93    92    1
    57    92    91    1
    58   103   102    1
    59   103   108   am
    60   106   105    1
    61   115   113    1
    62   105   102    1
    63    91    88    1
    64   102   101    1
    65   128   126   ar
    66   127   126   ar
    67    58    59    1
    68   111   110    2
    69   109   110    1
    70   109   108    1
    71   109   112    1
    72   126   125    1
    73   110   116   am
    74   117   116    1
    75   117   118    1
    76    98    97    2
    77    59    60    1
    78   101    97   am
    79   113   112    1
    80   113   114    1
    81   125   124    1
    82    88    87    1
    83    88    89    1
    84    73    72    2
    85   120   118   am
    86   120   121    1
    87    97    96    1
    88    70    71    1
    89   118   119    2
    90    87    80   am
    91   124   121    1
    92    89    95   am
    93    89    90    2
    94   175   173    1
    95    95    96    1
    96    60    61    1
    97    72    71    1
    98    72    78   am
    99   121   122    1
   100   174   173    1
   101   123   122    2
   102    96    99    1
   103    80    81    2
   104    80    79    1
   105    71    74    1
   106    61    62    1
   107    74    75    1
   108   173   172    1
   109    79    78    1
   110    79    82    1
   111    75    76    1
   112   155   153    1
   113    99   100    1
   114   172   169    1
   115   154   153    1
   116    82    83    1
   117   153   152    1
   118    83    84    1
   119    76    77    1
   120   169   170    1
   121   169   168    1
   122   152   149    1
   123   171   170    2
   124   167   165   ar
   125   132   131    2
   126   149   150    1
   127   149   148    1
   128   170   176   am
   129   164   165    1
   130   164   161    1
   131   165   166   ar
   132   150   151    2
   133   133   130    1
   134   133   134    1
   135    84    86   ar
   136    84    85   ar
   137   130   131    1
   138   130   129    1
   139   131   140   am
   140    68    67    1
   141   135   134    1
   142   135   136    1
   143   176   177    1
   144   160   161    1
   145   160   158   am
   146   161   162    1
   147    67    69    1
   148    67    64    1
   149   146   145    2
   150   163   162    2
   151   157   158    1
   152   157   156    1
   153   140   141    1
   154   177   178    1
   155   177   180    1
   156   136   137    2
   157   141   142    1
   158   141   144    1
   159   158   159    2
   160   178   179    2
   161    64    65    1
   162    64    63    1
   163   142   143    2
   164   145   144    1
   165   145   147   am
   166    65    66    2
   167   138   137    1
   168   181   180    1
   169   137   139    1
