@<TRIPOS>MOLECULE
tmp/3bziA00.pdb
 174 174 0 0 0
SMALL
GASTEIGER

@<TRIPOS>ATOM
      1  N          3.5120  -13.0090   14.4440 N.3    42  SER42      -0.1202
      2  CA         4.4430  -14.0260   14.0420 C.3    42  SER42       0.2020
      3  C          3.7970  -15.3480   13.5280 C.2    42  SER42       0.2619
      4  O          4.2610  -16.0290   12.5500 O.2    42  SER42      -0.2717
      5  CB         5.2740  -14.2970   15.3120 C.3    42  SER42       0.2103
      6  OG         6.5980  -14.3630   14.8570 O.3    42  SER42      -0.2182
      7  N          2.7270  -15.7270   14.2040 N.am   43  LYS43      -0.1965
      8  CA         1.9980  -16.9700   13.9410 C.3    43  LYS43       0.1728
      9  C          0.5410  -16.6380   14.2160 C.2    43  LYS43       0.2616
     10  O          0.3110  -15.7760   15.0630 O.2    43  LYS43      -0.2715
     11  CB         2.4510  -18.0660   14.9310 C.3    43  LYS43       0.0311
     12  CG         3.9430  -18.3880   14.8670 C.3    43  LYS43       0.0038
     13  CD         4.3320  -19.6260   15.7270 C.3    43  LYS43       0.0206
     14  CE         5.8330  -19.7260   15.9500 C.3    43  LYS43       0.1093
     15  NZ         6.1630  -21.0970   16.5460 N.3    43  LYS43      -0.1314
     16  N         -0.4240  -17.2740   13.5400 N.am   44  TRP44      -0.1960
     17  CA        -1.8680  -17.1030   13.9110 C.3    44  TRP44       0.1771
     18  C         -2.6280  -18.3730   13.6650 C.2    44  TRP44       0.2620
     19  O         -2.1910  -19.2300   12.8830 O.2    44  TRP44      -0.2715
     20  CB        -2.5970  -15.8810   13.2640 C.3    44  TRP44       0.0590
     21  CG        -2.4810  -15.8810   11.7630 C.ar   44  TRP44       0.0006
     22  CD1       -1.4570  -15.3360   11.0070 C.ar   44  TRP44       0.0946
     23  CD2       -3.3410  -16.5720   10.8410 C.ar   44  TRP44       0.0152
     24  NE1       -1.6850  -15.6080    9.6700 N.ar   44  TRP44      -0.2442
     25  CE2       -2.8110  -16.3880    9.5570 C.ar   44  TRP44       0.0810
     26  CE3       -4.5380  -17.2930   10.9860 C.ar   44  TRP44       0.0012
     27  CZ2       -3.4580  -16.8650    8.4030 C.ar   44  TRP44       0.0191
     28  CZ3       -5.1570  -17.7960    9.8570 C.ar   44  TRP44       0.0001
     29  CH2       -4.6190  -17.5790    8.5840 C.ar   44  TRP44       0.0015
     30  N         -3.7390  -18.5330   14.3900 N.am   45  VAL45      -0.1963
     31  CA        -4.6050  -19.7250   14.2520 C.3    45  VAL45       0.1727
     32  C         -6.0760  -19.2660   14.3130 C.2    45  VAL45       0.2616
     33  O         -6.5310  -18.7410   15.3480 O.2    45  VAL45      -0.2715
     34  CB        -4.3610  -20.7730   15.3560 C.3    45  VAL45       0.0290
     35  CG1       -5.2800  -21.9470   15.1570 C.3    45  VAL45       0.0023
     36  CG2       -2.9270  -21.2740   15.3150 C.3    45  VAL45       0.0023
     37  N         -6.7790  -19.3850   13.1880 N.am   46  ASP46      -0.1957
     38  CA        -8.1960  -19.0140   13.1200 C.3    46  ASP46       0.1840
     39  C         -9.0830  -20.2170   13.4550 C.2    46  ASP46       0.2622
     40  O         -9.2770  -21.1000   12.6310 O.2    46  ASP46      -0.2715
     41  CB        -8.4940  -18.4840   11.7270 C.3    46  ASP46       0.1450
     42  CG        -9.9670  -18.2100   11.4800 C.2    46  ASP46       0.3671
     43  OD1      -10.8340  -18.3780   12.3610 O.co2  46  ASP46      -0.2456
     44  OD2      -10.2680  -17.8200   10.3510 O.co2  46  ASP46      -0.2456
     45  N         -9.5880  -20.2540   14.6850 N.am   47  TYR47      -0.1974
     46  CA       -10.5140  -21.3120   15.1220 C.3    47  TYR47       0.1639
     47  C        -11.7920  -20.6100   15.4820 C.2    47  TYR47       0.2290
     48  O        -12.3640  -20.8780   16.5370 O.2    47  TYR47      -0.2864
     49  CB        -9.9860  -22.0310   16.3900 C.3    47  TYR47       0.0560
     50  CG       -10.4670  -23.4780   16.5240 C.ar   47  TYR47      -0.0198
     51  CD1      -10.0390  -24.2710   17.5840 C.ar   47  TYR47      -0.0009
     52  CD2      -11.3370  -24.0600   15.5730 C.ar   47  TYR47      -0.0009
     53  CE1      -10.4270  -25.6060   17.6990 C.ar   47  TYR47       0.0417
     54  CE2      -11.7560  -25.4100   15.7000 C.ar   47  TYR47       0.0417
     55  CZ       -11.2850  -26.1730   16.7830 C.ar   47  TYR47       0.1957
     56  OH       -11.6310  -27.5080   16.9700 O.3    47  TYR47      -0.2866
     57  N         -0.1950  -25.3400   20.0650 N.3   115  TYR115     -0.1241
     58  CA        -0.3990  -25.5900   18.6350 C.3   115  TYR115      0.1605
     59  C          0.5860  -24.8220   17.7480 C.2   115  TYR115      0.2264
     60  O          1.1710  -25.3790   16.8080 O.2   115  TYR115     -0.2867
     61  CB        -1.8820  -25.3600   18.2460 C.3   115  TYR115      0.0534
     62  CG        -2.2460  -25.8120   16.8610 C.ar  115  TYR115     -0.0201
     63  CD1       -2.8570  -27.0340   16.6290 C.ar  115  TYR115     -0.0009
     64  CD2       -1.9600  -24.9930   15.7680 C.ar  115  TYR115     -0.0009
     65  CE1       -3.1710  -27.4450   15.3240 C.ar  115  TYR115      0.0417
     66  CE2       -2.2410  -25.3970   14.4790 C.ar  115  TYR115      0.0417
     67  CZ        -2.8580  -26.6060   14.2560 C.ar  115  TYR115      0.1957
     68  OH        -3.1320  -26.9150   12.9440 O.3   115  TYR115     -0.2866
     69  N          3.4540  -23.3640   18.6910 N.3   117  SER117     -0.1202
     70  CA         4.8260  -23.8220   18.9660 C.3   117  SER117      0.2020
     71  C          5.1660  -25.1100   18.2010 C.2   117  SER117      0.2619
     72  O          6.2060  -25.2200   17.4830 O.2   117  SER117     -0.2717
     73  CB         5.0160  -24.0020   20.4770 C.3   117  SER117      0.2103
     74  OG         6.3410  -24.4480   20.7100 O.3   117  SER117     -0.2182
     75  N          4.2390  -26.0480   18.2360 N.am  118  GLU118     -0.1965
     76  CA         4.4180  -27.2980   17.5180 C.3   118  GLU118      0.1733
     77  C          4.4840  -27.1530   16.0100 C.2   118  GLU118      0.2616
     78  O          5.3240  -27.8090   15.3540 O.2   118  GLU118     -0.2715
     79  CB         3.3000  -28.2620   17.8340 C.3   118  GLU118      0.0429
     80  CG         3.2630  -28.6870   19.2790 C.3   118  GLU118      0.1163
     81  CD         4.2090  -29.8310   19.5620 C.2   118  GLU118      0.3649
     82  OE1        4.3710  -30.7400   18.6950 O.co2 118  GLU118     -0.2457
     83  OE2        4.8020  -29.7990   20.6630 O.co2 118  GLU118     -0.2457
     84  N          3.5810  -26.3620   15.4320 N.am  119  HIS119     -0.1959
     85  CA         3.3070  -26.5520   14.0090 C.3   119  HIS119      0.1787
     86  C          3.6280  -25.3910   13.0780 C.2   119  HIS119      0.2620
     87  O          3.7170  -25.5950   11.8570 O.2   119  HIS119     -0.2715
     88  CB         1.8690  -26.9280   13.7240 C.3   119  HIS119      0.0785
     89  CG         1.3190  -28.0330   14.5700 C.ar  119  HIS119      0.0821
     90  ND1        1.8130  -29.3300   14.5450 N.ar  119  HIS119     -0.2267
     91  CD2        0.2590  -28.0470   15.4140 C.ar  119  HIS119      0.1154
     92  CE1        1.0980  -30.0780   15.3660 C.ar  119  HIS119      0.1986
     93  NE2        0.1610  -29.3280   15.9140 N.ar  119  HIS119     -0.2212
     94  N          3.7150  -24.1760   13.6180 N.am  120  LEU120     -0.1963
     95  CA         3.7740  -22.9940   12.7390 C.3   120  LEU120      0.1728
     96  C          5.1160  -22.3100   12.7340 C.2   120  LEU120      0.2616
     97  O          5.7810  -22.2800   13.7670 O.2   120  LEU120     -0.2715
     98  CB         2.6980  -22.0120   13.1440 C.3   120  LEU120      0.0311
     99  CG         1.3000  -22.6360   13.1900 C.3   120  LEU120      0.0022
    100  CD1        0.3240  -21.5500   13.4680 C.3   120  LEU120      0.0001
    101  CD2        0.9240  -23.3400   11.8550 C.3   120  LEU120      0.0001
    102  N          5.5080  -21.7610   11.5720 N.am  121  LEU121     -0.1977
    103  CA         6.7740  -20.9990   11.4520 C.3   121  LEU121      0.1596
    104  C          6.5790  -19.6040   12.0120 C.2   121  LEU121      0.2287
    105  O          5.4720  -19.0360   11.9460 O.2   121  LEU121     -0.2864
    106  CB         7.1640  -20.8000    9.9560 C.3   121  LEU121      0.0297
    107  CG         7.6150  -22.0430    9.2010 C.3   121  LEU121      0.0022
    108  CD1        7.7380  -21.8350    7.7120 C.3   121  LEU121      0.0001
    109  CD2        8.9850  -22.5280    9.7840 C.3   121  LEU121      0.0001
    110  N          6.8910  -15.9800   11.4830 N.3   123  ALA123     -0.1245
    111  CA         7.1350  -14.9060   10.5080 C.3   123  ALA123      0.1562
    112  C          8.1830  -13.8770   11.0500 C.2   123  ALA123      0.2260
    113  O          8.1040  -13.4980   12.1920 O.2   123  ALA123     -0.2867
    114  CB         5.7990  -14.2180   10.1050 C.3   123  ALA123      0.0290
    115  N        -10.3460  -11.8450    7.1470 N.3   146  ARG146     -0.1245
    116  CA        -9.7890  -12.4590    5.9570 C.3   146  ARG146      0.1563
    117  C        -10.5430  -12.0500    4.7060 C.2   146  ARG146      0.2260
    118  O        -11.7430  -11.9460    4.7380 O.2   146  ARG146     -0.2867
    119  CB        -9.8210  -13.9990    6.0660 C.3   146  ARG146      0.0307
    120  CG        -8.8020  -14.4950    7.0540 C.3   146  ARG146      0.0489
    121  CD        -8.6220  -16.0240    7.1010 C.3   146  ARG146      0.2205
    122  NE        -9.7170  -16.7430    7.7850 N.pl3 146  ARG146     -0.0865
    123  CZ       -10.7820  -17.2350    7.1490 C.cat 146  ARG146      0.5346
    124  NH1      -11.7140  -17.9130    7.8160 N.pl3 146  ARG146      0.1354
    125  NH2      -10.9060  -17.0580    5.8240 N.pl3 146  ARG146      0.1354
    126  N         -1.1200  -10.2420    5.7010 N.3   163  ASN163     -0.1225
    127  CA        -0.3960  -11.4450    5.2190 C.3   163  ASN163      0.1785
    128  C         -1.1220  -12.0440    4.0150 C.2   163  ASN163      0.2597
    129  O         -2.2780  -12.4890    4.1650 O.2   163  ASN163     -0.2718
    130  CB        -0.3690  -12.5210    6.3020 C.3   163  ASN163      0.1169
    131  CG         0.5240  -12.1470    7.5200 C.2   163  ASN163      0.2627
    132  OD1        0.9310  -10.9810    7.7520 O.2   163  ASN163     -0.2716
    133  ND2        0.8140  -13.1570    8.2960 N.am  163  ASN163     -0.0877
    134  N         -0.4800  -11.9870    2.8500 N.am  164  PHE164     -0.1962
    135  CA        -0.9930  -12.5010    1.5720 C.3   164  PHE164      0.1771
    136  C         -0.8440  -14.0140    1.4720 C.2   164  PHE164      0.2619
    137  O          0.2090  -14.5260    1.7220 O.2   164  PHE164     -0.2715
    138  CB        -0.2510  -11.8090    0.4270 C.3   164  PHE164      0.0574
    139  CG        -0.6240  -10.3660    0.3120 C.ar  164  PHE164     -0.0200
    140  CD1        0.1840   -9.3800    0.8670 C.ar  164  PHE164     -0.0042
    141  CD2       -1.8590  -10.0100   -0.2490 C.ar  164  PHE164     -0.0042
    142  CE1       -0.1790   -7.9630    0.8120 C.ar  164  PHE164     -0.0003
    143  CE2       -2.2710   -8.6250   -0.3310 C.ar  164  PHE164     -0.0003
    144  CZ        -1.4170   -7.6000    0.2220 C.ar  164  PHE164     -0.0000
    145  N         -1.9350  -14.6990    1.1540 N.am  165  PHE165     -0.1974
    146  CA        -1.9780  -16.1610    1.1030 C.3   165  PHE165      0.1639
    147  C         -1.0700  -16.8210    0.0270 C.2   165  PHE165      0.2290
    148  O         -0.2860  -17.7220    0.3490 O.2   165  PHE165     -0.2864
    149  CB        -3.4250  -16.6430    0.8870 C.3   165  PHE165      0.0560
    150  CG        -4.3790  -16.2570    2.0010 C.ar  165  PHE165     -0.0200
    151  CD1       -3.9590  -16.2760    3.3350 C.ar  165  PHE165     -0.0042
    152  CD2       -5.6930  -15.8730    1.7070 C.ar  165  PHE165     -0.0042
    153  CE1       -4.8250  -15.9070    4.3450 C.ar  165  PHE165     -0.0003
    154  CE2       -6.5510  -15.5060    2.7030 C.ar  165  PHE165     -0.0003
    155  CZ        -6.1340  -15.5150    4.0120 C.ar  165  PHE165     -0.0000
    156  N          2.8690  -15.4530    0.1690 N.3   168  HIS168     -0.1241
    157  CA         3.4710  -15.3570    1.5160 C.3   168  HIS168      0.1621
    158  C          4.1350  -14.0330    1.8340 C.2   168  HIS168      0.2264
    159  O          4.8330  -13.9310    2.8290 O.2   168  HIS168     -0.2867
    160  CB         4.4340  -16.4960    1.8090 C.3   168  HIS168      0.0745
    161  CG         3.8170  -17.8360    1.5780 C.ar  168  HIS168      0.0817
    162  ND1        2.9120  -18.4040    2.4540 N.ar  168  HIS168     -0.2268
    163  CD2        3.9220  -18.6980    0.5310 C.ar  168  HIS168      0.1154
    164  CE1        2.5380  -19.5880    1.9890 C.ar  168  HIS168      0.1986
    165  NE2        3.1260  -19.7830    0.8220 N.ar  168  HIS168     -0.2212
    166  N          4.1590  -10.0850    3.0480 N.3   170  LYS170     -0.1245
    167  CA         3.4760   -9.4850    4.1890 C.3   170  LYS170      0.1561
    168  C          3.8020   -8.0210    4.3080 C.2   170  LYS170      0.2260
    169  O          4.9210   -7.6130    3.9500 O.2   170  LYS170     -0.2867
    170  CB         3.8690  -10.1740    5.4680 C.3   170  LYS170      0.0271
    171  CG         3.7370  -11.7350    5.4300 C.3   170  LYS170      0.0035
    172  CD         4.2510  -12.3180    6.7490 C.3   170  LYS170      0.0206
    173  CE         4.0390  -13.8030    6.8290 C.3   170  LYS170      0.1093
    174  NZ         4.6070  -14.5410    5.6840 N.3   170  LYS170     -0.1314
@<TRIPOS>BOND
     1   143   141   ar
     2   143   144   ar
     3   141   139   ar
     4   147   148    2
     5   147   146    1
     6   156   157    1
     7   144   142   ar
     8   139   138    1
     9   139   140   ar
    10   138   135    1
    11   163   165   ar
    12   163   161   ar
    13   142   140   ar
    14   165   164   ar
    15   149   146    1
    16   149   150    1
    17   146   145    1
    18   145   136   am
    19   136   135    1
    20   136   137    2
    21   157   160    1
    22   157   158    1
    23   135   134    1
    24   161   160    1
    25   161   162   ar
    26   152   150   ar
    27   152   154   ar
    28   158   159    2
    29   164   162   ar
    30   150   151   ar
    31   154   155   ar
    32   134   128   am
    33   166   167    1
    34   151   153   ar
    35   169   168    2
    36   155   153   ar
    37   128   129    2
    38   128   127    1
    39   167   168    1
    40   167   170    1
    41   117   118    2
    42   117   116    1
    43   127   126    1
    44   127   130    1
    45   171   170    1
    46   171   172    1
    47   174   173    1
    48   125   123    1
    49   116   119    1
    50   116   115    1
    51   119   120    1
    52   130   131    1
    53   172   173    1
    54   120   121    1
    55   121   122    1
    56   123   122    2
    57   123   124    1
    58   131   132    2
    59   131   133   am
    60   108   107    1
    61    27    29   ar
    62    27    25   ar
    63    29    28   ar
    64   107   109    1
    65   107   106    1
    66    25    24   ar
    67    25    23   ar
    68    24    22   ar
    69    28    26   ar
    70   106   103    1
    71   114   111    1
    72    44    42   ar
    73   111   112    1
    74   111   110    1
    75    23    26   ar
    76    23    21   ar
    77    22    21   ar
    78   112   113    2
    79   103   102    1
    80   103   104    1
    81    42    41    1
    82    42    43   ar
    83   102    96   am
    84    41    38    1
    85    21    20    1
    86   101    99    1
    87    87    86    2
    88   105   104    2
    89     4     3    2
    90    40    39    2
    91    96    95    1
    92    96    97    2
    93    95    98    1
    94    95    94    1
    95    19    18    2
    96    68    67    1
    97    86    94   am
    98    86    85    1
    99    38    37    1
   100    38    39    1
   101    98    99    1
   102    37    32   am
   103    99   100    1
   104    20    17    1
   105    39    45   am
   106     3     2    1
   107     3     7   am
   108    16    17    1
   109    16     9   am
   110    18    17    1
   111    18    30   am
   112    88    85    1
   113    88    89    1
   114     8     7    1
   115     8     9    1
   116     8    11    1
   117    85    84    1
   118     2     1    1
   119     2     5    1
   120     9    10    2
   121    31    32    1
   122    31    30    1
   123    31    34    1
   124    67    66   ar
   125    67    65   ar
   126    32    33    2
   127    66    64   ar
   128    90    89   ar
   129    90    92   ar
   130    89    91   ar
   131    45    46    1
   132     6     5    1
   133    12    11    1
   134    12    13    1
   135    46    47    1
   136    46    49    1
   137    35    34    1
   138    36    34    1
   139    65    63   ar
   140    78    77    2
   141    92    93   ar
   142    91    93   ar
   143    84    77   am
   144    47    48    2
   145    52    54   ar
   146    52    50   ar
   147    54    55   ar
   148    13    14    1
   149    64    62   ar
   150    14    15    1
   151    77    76    1
   152    49    50    1
   153    50    51   ar
   154    63    62   ar
   155    55    56    1
   156    55    53   ar
   157    60    59    2
   158    62    61    1
   159    72    71    2
   160    76    79    1
   161    76    75    1
   162    51    53   ar
   163    59    58    1
   164    79    80    1
   165    71    75   am
   166    71    70    1
   167    61    58    1
   168    58    57    1
   169    69    70    1
   170    82    81   ar
   171    70    73    1
   172    80    81    1
   173    81    83   ar
   174    73    74    1
