@<TRIPOS>MOLECULE
tmp/3bzmA00.pdb
 101 95 0 0 0
SMALL
GASTEIGER

@<TRIPOS>ATOM
      1  N         19.8510  -25.1120   14.9870 N.3    57  GLN57      -0.1231
      2  CA        19.2790  -25.6570   16.1970 C.3    57  GLN57       0.1698
      3  C         18.5520  -26.9910   15.7710 C.2    57  GLN57       0.2592
      4  O         18.0900  -27.0690   14.6470 O.2    57  GLN57      -0.2718
      5  CB        18.3110  -24.6040   16.7940 C.3    57  GLN57       0.0381
      6  CG        18.0040  -24.8480   18.3190 C.3    57  GLN57       0.0905
      7  CD        16.9920  -26.0070   18.5180 C.2    57  GLN57       0.2608
      8  OE1       16.1620  -26.2960   17.6540 O.2    57  GLN57      -0.2717
      9  NE2       17.0170  -26.5920   19.6830 N.am   57  GLN57      -0.0878
     10  N         18.5130  -28.0120   16.6250 N.am   58  ARG58      -0.1966
     11  CA        18.0140  -29.3580   16.2100 C.3    58  ARG58       0.1729
     12  C         16.6080  -29.3980   15.6590 C.2    58  ARG58       0.2616
     13  O         16.2820  -30.2570   14.8730 O.2    58  ARG58      -0.2715
     14  CB        18.1470  -30.4040   17.3460 C.3    58  ARG58       0.0348
     15  CG        17.5280  -30.0110   18.6090 C.3    58  ARG58       0.0492
     16  CD        17.5580  -31.1740   19.5920 C.3    58  ARG58       0.2205
     17  NE        17.0550  -30.6480   20.8680 N.pl3  58  ARG58      -0.0865
     18  CZ        17.4010  -31.0850   22.0610 C.cat  58  ARG58       0.5346
     19  NH1       16.8790  -30.4980   23.0850 N.pl3  58  ARG58       0.1354
     20  NH2       18.3180  -32.0480   22.2200 N.pl3  58  ARG58       0.1354
     21  N         15.7420  -28.4960   16.1120 N.am   59  ASN59      -0.1972
     22  CA        14.3610  -28.4330   15.6030 C.3    59  ASN59       0.1688
     23  C         14.1850  -27.8520   14.1900 C.2    59  ASN59       0.2292
     24  O         13.0760  -27.8950   13.6370 O.2    59  ASN59      -0.2864
     25  CB        13.5870  -27.5340   16.5160 C.3    59  ASN59       0.1181
     26  CG        12.8820  -28.2550   17.5500 C.2    59  ASN59       0.2629
     27  OD1       13.3870  -29.3090   17.9670 O.2    59  ASN59      -0.2716
     28  ND2       11.7080  -27.7310   18.0330 N.am   59  ASN59      -0.0877
     29  N         21.5850  -31.3760   23.3210 N.3   241  ARG241     -0.1245
     30  CA        21.7370  -30.0680   23.9060 C.3   241  ARG241      0.1563
     31  C         22.5890  -30.0710   25.1610 C.2   241  ARG241      0.2260
     32  O         22.2990  -30.8580   26.0920 O.2   241  ARG241     -0.2867
     33  CB        20.3520  -29.5030   24.2360 C.3   241  ARG241      0.0307
     34  CG        20.3180  -28.2410   25.1410 C.3   241  ARG241      0.0489
     35  CD        18.9230  -27.8250   25.4760 C.3   241  ARG241      0.2205
     36  NE        18.2040  -27.2620   24.3400 N.pl3 241  ARG241     -0.0865
     37  CZ        16.8780  -27.0850   24.2680 C.cat 241  ARG241      0.5346
     38  NH1       16.0430  -27.4790   25.2420 N.pl3 241  ARG241      0.1354
     39  NH2       16.3560  -26.5480   23.1870 N.pl3 241  ARG241      0.1354
     40  N         20.2930  -24.5660   27.0990 N.3   244  ARG244     -0.1245
     41  CA        19.7010  -23.4560   26.4440 C.3   244  ARG244      0.1563
     42  C         19.3180  -22.5090   27.5720 C.2   244  ARG244      0.2260
     43  O         18.7930  -22.9350   28.5860 O.2   244  ARG244     -0.2867
     44  CB        18.5670  -23.9120   25.5000 C.3   244  ARG244      0.0307
     45  CG        17.8180  -22.7570   24.7850 C.3   244  ARG244      0.0489
     46  CD        16.4790  -22.5860   25.3830 C.3   244  ARG244      0.2205
     47  NE        15.5460  -22.9910   24.3930 N.pl3 244  ARG244     -0.0865
     48  CZ        14.2680  -22.6970   24.3320 C.cat 244  ARG244      0.5346
     49  NH1       13.6220  -22.0180   25.2890 N.pl3 244  ARG244      0.1354
     50  NH2       13.6340  -23.1450   23.2560 N.pl3 244  ARG244      0.1354
     51  N         17.3400  -24.8760   30.1230 N.3   251  ARG251     -0.1245
     52  CA        17.0340  -26.2640   29.7730 C.3   251  ARG251      0.1563
     53  C         18.2610  -27.0730   29.4990 C.2   251  ARG251      0.2260
     54  O         19.1710  -26.6300   28.7790 O.2   251  ARG251     -0.2867
     55  CB        16.0840  -26.3210   28.5610 C.3   251  ARG251      0.0307
     56  CG        14.7640  -25.5470   28.7970 C.3   251  ARG251      0.0489
     57  CD        13.8940  -25.6490   27.4960 C.3   251  ARG251      0.2205
     58  NE        12.7000  -24.7650   27.5200 N.pl3 251  ARG251     -0.0865
     59  CZ        11.7900  -24.7260   26.5410 C.cat 251  ARG251      0.5346
     60  NH1       10.6960  -23.9640   26.6440 N.pl3 251  ARG251      0.1354
     61  NH2       11.9700  -25.4790   25.4610 N.pl3 251  ARG251      0.1354
     62  N         19.5410  -31.6410   29.6910 N.3   253  GLU253     -0.1245
     63  CA        18.9190  -32.9360   29.5190 C.3   253  GLU253      0.1567
     64  C         19.9100  -34.0050   29.8260 C.2   253  GLU253      0.2260
     65  O         21.1010  -33.7700   29.7340 O.2   253  GLU253     -0.2867
     66  CB        18.3880  -33.0940   28.0550 C.3   253  GLU253      0.0388
     67  CG        19.3910  -32.8400   26.9520 C.3   253  GLU253      0.1160
     68  CD        18.7610  -32.6210   25.5860 C.2   253  GLU253      0.3649
     69  OE1       19.3250  -33.1060   24.5780 O.co2 253  GLU253     -0.2457
     70  OE2       17.6950  -31.9850   25.5320 O.co2 253  GLU253     -0.2457
     71  N         16.2420  -40.2230   27.1700 N.3   320  ARG320     -0.1245
     72  CA        16.5090  -38.8840   27.6230 C.3   320  ARG320      0.1563
     73  C         15.5400  -38.4450   28.7090 C.2   320  ARG320      0.2260
     74  O         14.3500  -38.7570   28.6370 O.2   320  ARG320     -0.2867
     75  CB        16.3920  -37.9460   26.3930 C.3   320  ARG320      0.0307
     76  CG        16.4320  -36.5070   26.7290 C.3   320  ARG320      0.0489
     77  CD        16.4010  -35.6530   25.4750 C.3   320  ARG320      0.2205
     78  NE        15.0400  -35.4480   24.9720 N.pl3 320  ARG320     -0.0865
     79  CZ        14.7460  -34.6370   23.9610 C.cat 320  ARG320      0.5346
     80  NH1       15.7210  -33.9540   23.4040 N.pl3 320  ARG320      0.1354
     81  NH2       13.4930  -34.4740   23.5310 N.pl3 320  ARG320      0.1354
     82  N         14.5980  -34.6010   30.2240 N.3   322  CYS322     -0.1235
     83  CA        14.9440  -33.1710   30.2010 C.3   322  CYS322      0.1677
     84  C         14.8340  -32.5600   31.5670 C.2   322  CYS322      0.2270
     85  O         14.0150  -32.9670   32.3610 O.2   322  CYS322     -0.2867
     86  CB        14.1050  -32.3810   29.1850 C.3   322  CYS322      0.0956
     87  SG        14.2130  -33.0660   27.5700 S.3   322  CYS322     -0.0801
     88  N         14.4950  -28.8570   33.3640 N.3   324  TRP324     -0.1241
     89  CA        14.3010  -27.4380   33.3000 C.3   324  TRP324      0.1605
     90  C         14.3660  -26.8660   34.7200 C.2   324  TRP324      0.2264
     91  O         14.0400  -27.5550   35.7220 O.2   324  TRP324     -0.2867
     92  CB        12.9710  -27.1170   32.6730 C.3   324  TRP324      0.0550
     93  CG        12.7570  -27.6590   31.2780 C.ar  324  TRP324      0.0003
     94  CD1       13.5460  -28.5470   30.5740 C.ar  324  TRP324      0.0946
     95  CD2       11.6710  -27.3300   30.4220 C.ar  324  TRP324      0.0152
     96  NE1       13.0160  -28.7620   29.3210 N.ar  324  TRP324     -0.2442
     97  CE2       11.8650  -28.0220   29.2070 C.ar  324  TRP324      0.0810
     98  CE3       10.5800  -26.4630   30.5400 C.ar  324  TRP324      0.0012
     99  CZ2       10.9630  -27.9230   28.1420 C.ar  324  TRP324      0.0191
    100  CZ3        9.7220  -26.3650   29.5030 C.ar  324  TRP324      0.0001
    101  CH2        9.9160  -27.0820   28.3010 C.ar  324  TRP324      0.0015
@<TRIPOS>BOND
     1    24    23    2
     2    23    22    1
     3     4     3    2
     4    13    12    2
     5     1     2    1
     6    22    21    1
     7    22    25    1
     8    12    21   am
     9    12    11    1
    10     3     2    1
    11     3    10   am
    12     2     5    1
    13    11    10    1
    14    11    14    1
    15    25    26    1
    16     5     6    1
    17    14    15    1
    18    26    27    2
    19    26    28   am
    20     8     7    2
    21     6     7    1
    22     7     9   am
    23    15    16    1
    24    16    17    1
    25    17    18    2
    26    18    20    1
    27    18    19    1
    28    39    37    1
    29    50    48    1
    30    29    30    1
    31    80    79    1
    32    81    79    1
    33    30    33    1
    34    30    31    1
    35    79    78    2
    36    33    34    1
    37    37    36    2
    38    37    38    1
    39    48    47    2
    40    48    49    1
    41    36    35    1
    42    47    46    1
    43    69    68   ar
    44    45    46    1
    45    45    44    1
    46    78    77    1
    47    34    35    1
    48    31    32    2
    49    61    59    1
    50    77    76    1
    51    44    41    1
    52    70    68   ar
    53    68    67    1
    54    75    76    1
    55    75    72    1
    56    41    40    1
    57    41    42    1
    58    59    60    1
    59    59    58    2
    60    67    66    1
    61    71    72    1
    62    57    58    1
    63    57    56    1
    64    87    86    1
    65    42    43    2
    66    72    73    1
    67    66    63    1
    68    99   101   ar
    69    99    97   ar
    70   101   100   ar
    71    55    56    1
    72    55    52    1
    73    74    73    2
    74    54    53    2
    75    86    83    1
    76    97    96   ar
    77    97    95   ar
    78    96    94   ar
    79    53    52    1
    80   100    98   ar
    81    63    62    1
    82    63    64    1
    83    65    64    2
    84    52    51    1
    85    83    82    1
    86    83    84    1
    87    95    98   ar
    88    95    93   ar
    89    94    93   ar
    90    93    92    1
    91    84    85    2
    92    92    89    1
    93    89    88    1
    94    89    90    1
    95    90    91    2
