@<TRIPOS>MOLECULE
tmp/3bzoB00.pdb
 112 104 0 0 0
SMALL
GASTEIGER

@<TRIPOS>ATOM
      1  N        -11.6900  -20.8570  -12.2460 N.3     6  CYS6       -0.1235
      2  CA       -12.8810  -20.7500  -13.0780 C.3     6  CYS6        0.1677
      3  C        -13.1470  -22.0970  -13.7330 C.2     6  CYS6        0.2270
      4  O        -12.3380  -22.5580  -14.5430 O.2     6  CYS6       -0.2867
      5  CB       -12.6660  -19.6880  -14.1610 C.3     6  CYS6        0.0956
      6  SG       -14.0580  -19.4550  -15.2770 S.3     6  CYS6       -0.0801
      7  N        -15.5990  -24.6430  -16.0350 N.3     8  TYR8       -0.1241
      8  CA       -16.5360  -24.6550  -17.1460 C.3     8  TYR8        0.1605
      9  C        -16.9840  -26.0920  -17.3900 C.2     8  TYR8        0.2264
     10  O        -16.1690  -26.9870  -17.5670 O.2     8  TYR8       -0.2867
     11  CB       -15.8640  -24.0790  -18.3920 C.3     8  TYR8        0.0534
     12  CG       -16.7230  -24.1020  -19.6290 C.ar    8  TYR8       -0.0201
     13  CD1      -16.3220  -24.7970  -20.7510 C.ar    8  TYR8       -0.0009
     14  CD2      -17.9320  -23.4250  -19.6730 C.ar    8  TYR8       -0.0009
     15  CE1      -17.0930  -24.8080  -21.8950 C.ar    8  TYR8        0.0417
     16  CE2      -18.7160  -23.4340  -20.8070 C.ar    8  TYR8        0.0417
     17  CZ       -18.2970  -24.1270  -21.9170 C.ar    8  TYR8        0.1957
     18  OH       -19.0870  -24.1330  -23.0580 O.3     8  TYR8       -0.2866
     19  N        -20.1810  -30.9140  -24.7200 N.3    13  GLU13      -0.1245
     20  CA       -18.9350  -30.3010  -25.1750 C.3    13  GLU13       0.1567
     21  C        -17.7620  -30.8210  -24.3590 C.2    13  GLU13       0.2260
     22  O        -16.9270  -31.5690  -24.8670 O.2    13  GLU13      -0.2867
     23  CB       -19.0110  -28.7720  -25.0860 C.3    13  GLU13       0.0388
     24  CG       -17.7650  -28.0610  -25.6120 C.3    13  GLU13       0.1160
     25  CD       -17.7070  -26.5970  -25.2230 C.2    13  GLU13       0.3649
     26  OE1      -16.6760  -25.9470  -25.5070 O.co2  13  GLU13      -0.2457
     27  OE2      -18.6870  -26.0890  -24.6360 O.co2  13  GLU13      -0.2457
     28  N        -10.8060  -23.3940  -16.9490 N.3    20  ILE20      -0.1231
     29  CA       -10.5490  -22.6190  -18.1160 C.3    20  ILE20       0.1692
     30  C         -9.7640  -21.3240  -17.8180 C.2    20  ILE20       0.2591
     31  O         -9.1170  -20.7620  -18.7050 O.2    20  ILE20      -0.2718
     32  CB       -11.8840  -22.3950  -18.8950 C.3    20  ILE20       0.0266
     33  CG1      -13.0330  -21.8260  -17.9970 C.3    20  ILE20       0.0019
     34  CG2      -12.3360  -23.7250  -19.6050 C.3    20  ILE20       0.0020
     35  CD1      -14.0700  -20.9750  -18.8230 C.3    20  ILE20       0.0001
     36  N         -9.7920  -20.8980  -16.5590 N.am   21  GLU21      -0.1979
     37  CA        -8.9920  -19.7590  -16.1110 C.3    21  GLU21       0.1602
     38  C         -8.6300  -19.9480  -14.6620 C.2    21  GLU21       0.2287
     39  O         -9.4070  -20.5230  -13.8960 O.2    21  GLU21      -0.2864
     40  CB        -9.7910  -18.4550  -16.2340 C.3    21  GLU21       0.0415
     41  CG       -10.0570  -17.9690  -17.6440 C.3    21  GLU21       0.1163
     42  CD        -8.8310  -17.3690  -18.3490 C.2    21  GLU21       0.3649
     43  OE1       -7.7540  -17.2410  -17.7200 O.co2  21  GLU21      -0.2457
     44  OE2       -8.9730  -17.0230  -19.5460 O.co2  21  GLU21      -0.2457
     45  N         -4.8120  -10.9300  -10.3770 N.3    27  LYS27      -0.1245
     46  CA        -5.6220  -11.6120  -11.3750 C.3    27  LYS27       0.1561
     47  C         -6.8290  -12.2850  -10.7320 C.2    27  LYS27       0.2260
     48  O         -7.9160  -12.3020  -11.3060 O.2    27  LYS27      -0.2867
     49  CB        -4.8060  -12.6300  -12.1660 C.3    27  LYS27       0.0271
     50  CG        -5.5970  -13.2130  -13.3180 C.3    27  LYS27       0.0035
     51  CD        -4.7530  -14.0340  -14.2680 C.3    27  LYS27       0.0206
     52  CE        -5.5990  -14.5250  -15.4230 C.3    27  LYS27       0.1093
     53  NZ        -5.0340  -15.7360  -16.0780 N.3    27  LYS27      -0.1314
     54  N         -9.4550   -9.7270  -10.1960 N.3    30  GLN30      -0.1231
     55  CA       -10.0840   -9.3430  -11.4520 C.3    30  GLN30       0.1698
     56  C        -11.0900  -10.3970  -11.8960 C.2    30  GLN30       0.2592
     57  O        -12.1880  -10.0670  -12.3760 O.2    30  GLN30      -0.2718
     58  CB        -9.0180   -9.1380  -12.5280 C.3    30  GLN30       0.0381
     59  CG        -9.5850   -8.6680  -13.8560 C.3    30  GLN30       0.0905
     60  CD        -8.5260   -8.5670  -14.9080 C.2    30  GLN30       0.2608
     61  OE1       -7.3840   -8.9840  -14.6880 O.2    30  GLN30      -0.2717
     62  NE2       -8.8850   -7.9980  -16.0650 N.am   30  GLN30      -0.0878
     63  N        -10.7290  -11.6660  -11.7350 N.am   31  ILE31      -0.1980
     64  CA       -11.6560  -12.7550  -12.0720 C.3    31  ILE31       0.1595
     65  C        -12.9500  -12.6190  -11.2840 C.2    31  ILE31       0.2287
     66  O        -14.0490  -12.7880  -11.8300 O.2    31  ILE31      -0.2864
     67  CB       -11.0100  -14.1350  -11.8280 C.3    31  ILE31       0.0276
     68  CG1       -9.9470  -14.4100  -12.9020 C.3    31  ILE31       0.0022
     69  CG2      -12.0690  -15.2350  -11.8030 C.3    31  ILE31       0.0022
     70  CD1       -9.0970  -15.5970  -12.6680 C.3    31  ILE31       0.0001
     71  N        -15.0980   -9.8130  -12.5990 N.3    34  LEU34      -0.1231
     72  CA       -15.7320  -10.2270  -13.8410 C.3    34  LEU34       0.1693
     73  C        -16.8580  -11.1990  -13.5610 C.2    34  LEU34       0.2591
     74  O        -17.9020  -11.1480  -14.2110 O.2    34  LEU34      -0.2718
     75  CB       -14.6970  -10.8340  -14.7870 C.3    34  LEU34       0.0284
     76  CG       -13.7400   -9.7990  -15.3860 C.3    34  LEU34       0.0019
     77  CD1      -12.6160  -10.5240  -16.1050 C.3    34  LEU34       0.0001
     78  CD2      -14.4650   -8.8390  -16.3420 C.3    34  LEU34       0.0001
     79  N        -16.6510  -12.0890  -12.5940 N.am   35  ALA35      -0.1980
     80  CA       -17.7030  -12.9850  -12.1570 C.3    35  ALA35       0.1597
     81  C        -18.9330  -12.1930  -11.7280 C.2    35  ALA35       0.2287
     82  O        -20.0580  -12.5230  -12.1100 O.2    35  ALA35      -0.2864
     83  CB       -17.2090  -13.8600  -11.0160 C.3    35  ALA35       0.0319
     84  N        -20.7380  -10.7200  -14.7880 N.3    38  TYR38      -0.1241
     85  CA       -21.4430  -11.6860  -15.6200 C.3    38  TYR38       0.1605
     86  C        -22.3550  -12.6100  -14.7940 C.2    38  TYR38       0.2264
     87  O        -22.9080  -13.5710  -15.3200 O.2    38  TYR38      -0.2867
     88  CB       -20.4290  -12.4870  -16.4460 C.3    38  TYR38       0.0534
     89  CG       -19.5690  -11.6480  -17.3680 C.ar   38  TYR38      -0.0201
     90  CD1      -18.1870  -11.7250  -17.3320 C.ar   38  TYR38      -0.0009
     91  CD2      -20.1450  -10.8150  -18.2980 C.ar   38  TYR38      -0.0009
     92  CE1      -17.4130  -10.9620  -18.1800 C.ar   38  TYR38       0.0417
     93  CE2      -19.3770  -10.0480  -19.1510 C.ar   38  TYR38       0.0417
     94  CZ       -18.0190  -10.1220  -19.0920 C.ar   38  TYR38       0.1957
     95  OH       -17.2540   -9.3700  -19.9570 O.3    38  TYR38      -0.2866
     96  N        -21.7230  -14.8090  -12.4820 N.3    40  ILE40      -0.1245
     97  CA       -21.2470  -16.1960  -12.3600 C.3    40  ILE40       0.1561
     98  C        -21.1750  -16.5270  -10.8760 C.2    40  ILE40       0.2260
     99  O        -20.5780  -15.7650  -10.1120 O.2    40  ILE40      -0.2867
    100  CB       -19.8470  -16.3780  -12.9500 C.3    40  ILE40       0.0252
    101  CG1      -19.7550  -15.7710  -14.3600 C.3    40  ILE40       0.0019
    102  CG2      -19.4210  -17.8640  -12.9280 C.3    40  ILE40       0.0019
    103  CD1      -20.6700  -16.4050  -15.3810 C.3    40  ILE40       0.0001
    104  N         -4.4970  -24.2520  -15.8670 N.3    58  LYS58      -0.1245
    105  CA        -5.3470  -23.6670  -16.8800 C.3    58  LYS58       0.1561
    106  C         -5.3860  -24.5610  -18.1130 C.2    58  LYS58       0.2260
    107  O         -4.3370  -24.9390  -18.6580 O.2    58  LYS58      -0.2867
    108  CB        -4.8360  -22.2740  -17.2690 C.3    58  LYS58       0.0271
    109  CG        -5.6100  -21.6130  -18.4030 C.3    58  LYS58       0.0035
    110  CD        -5.1810  -20.1700  -18.6330 C.3    58  LYS58       0.0206
    111  CE        -6.0200  -19.5120  -19.7170 C.3    58  LYS58       0.1093
    112  NZ        -5.7260  -18.0660  -19.8910 N.3    58  LYS58      -0.1314
@<TRIPOS>BOND
     1    24    25    1
     2    24    23    1
     3    26    25   ar
     4    25    27   ar
     5    20    23    1
     6    20    19    1
     7    20    21    1
     8    22    21    2
     9    18    17    1
    10    17    15   ar
    11    17    16   ar
    12    15    13   ar
    13    16    14   ar
    14    13    12   ar
    15    95    94    1
    16   112   111    1
    17   111   110    1
    18    14    12   ar
    19    12    11    1
    20    34    32    1
    21    44    42   ar
    22    93    94   ar
    23    93    91   ar
    24    94    92   ar
    25    32    29    1
    26    32    33    1
    27    35    33    1
    28    31    30    2
    29   107   106    2
    30   110   109    1
    31   109   108    1
    32    11     8    1
    33    42    43   ar
    34    42    41    1
    35    91    89   ar
    36    92    90   ar
    37    29    30    1
    38    29    28    1
    39   106   105    1
    40    30    36   am
    41    41    40    1
    42    10     9    2
    43     9     8    1
    44    89    90   ar
    45    89    88    1
    46   108   105    1
    47     8     7    1
    48   105   104    1
    49    36    37    1
    50    88    85    1
    51    78    76    1
    52    40    37    1
    53    37    38    1
    54    77    76    1
    55    53    52    1
    56    62    60   am
    57    85    86    1
    58    85    84    1
    59    52    51    1
    60    76    75    1
    61   103   101    1
    62    87    86    2
    63     6     5    1
    64    60    61    2
    65    60    59    1
    66    75    72    1
    67    38    39    2
    68     4     3    2
    69   101   100    1
    70    51    50    1
    71    74    73    2
    72     5     2    1
    73    59    58    1
    74    72    73    1
    75    72    71    1
    76     3     2    1
    77    73    79   am
    78    50    49    1
    79     2     1    1
    80   100   102    1
    81   100    97    1
    82    68    70    1
    83    68    67    1
    84    79    80    1
    85    58    55    1
    86    96    97    1
    87    57    56    2
    88    97    98    1
    89    49    46    1
    90    80    81    1
    91    80    83    1
    92    82    81    2
    93    64    67    1
    94    64    63    1
    95    64    65    1
    96    56    63   am
    97    56    55    1
    98    66    65    2
    99    67    69    1
   100    55    54    1
   101    46    47    1
   102    46    45    1
   103    48    47    2
   104    98    99    2
