@<TRIPOS>MOLECULE
tmp/3bzuC01.pdb
 123 116 0 0 0
SMALL
GASTEIGER

@<TRIPOS>ATOM
      1  N        -16.7070   50.5270   10.5660 N.3    98  ILE98      -0.1245
      2  CA       -16.7700   50.0570    9.1890 C.3    98  ILE98       0.1561
      3  C        -17.5440   51.0990    8.4260 C.2    98  ILE98       0.2260
      4  O        -18.3100   51.8760    9.0170 O.2    98  ILE98      -0.2867
      5  CB       -17.5100   48.6750    9.0480 C.3    98  ILE98       0.0252
      6  CG1      -18.8170   48.6590    9.8520 C.3    98  ILE98       0.0019
      7  CG2      -16.5790   47.5150    9.3900 C.3    98  ILE98       0.0019
      8  CD1      -19.8750   47.5260    9.4390 C.3    98  ILE98       0.0001
      9  N        -22.6070   49.7860    4.3200 N.3   101  THR101     -0.1203
     10  CA       -22.5920   48.7370    3.2980 C.3   101  THR101      0.1994
     11  C        -23.9120   48.0000    3.2420 C.2   101  THR101      0.2619
     12  O        -24.5970   47.8510    4.2640 O.2   101  THR101     -0.2717
     13  CB       -21.4610   47.6970    3.5390 C.3   101  THR101      0.1784
     14  OG1      -20.2710   48.3650    3.9810 O.3   101  THR101     -0.2211
     15  CG2      -21.1620   46.9290    2.2720 C.3   101  THR101      0.0376
     16  N        -24.2520   47.5350    2.0430 N.am  102  SER102     -0.1937
     17  CA       -25.4570   46.7340    1.8110 C.3   102  SER102      0.2055
     18  C        -25.0450   45.4140    1.1950 C.2   102  SER102      0.2642
     19  O        -23.9460   45.2870    0.6570 O.2   102  SER102     -0.2714
     20  CB       -26.4090   47.4580    0.8530 C.3   102  SER102      0.2130
     21  OG       -26.5000   48.8440    1.1550 O.3   102  SER102     -0.2179
     22  N        -25.9220   44.4230    1.2860 N.am  103  LEU103     -0.1977
     23  CA       -25.7550   43.2280    0.4790 C.3   103  LEU103      0.1596
     24  C        -26.1550   43.5940   -0.9410 C.2   103  LEU103      0.2287
     25  O        -27.2630   44.0960   -1.1640 O.2   103  LEU103     -0.2864
     26  CB       -26.6160   42.0840    0.9990 C.3   103  LEU103      0.0297
     27  CG       -26.2710   41.4130    2.3270 C.3   103  LEU103      0.0022
     28  CD1      -27.4180   40.4810    2.7120 C.3   103  LEU103      0.0001
     29  CD2      -24.9980   40.6350    2.2440 C.3   103  LEU103      0.0001
     30  N        -14.7600   39.4240   10.7180 N.3   147  SER147     -0.1202
     31  CA       -16.0070   38.7850   10.3470 C.3   147  SER147      0.2020
     32  C        -15.7830   37.3940    9.7750 C.2   147  SER147      0.2619
     33  O        -14.6720   37.0430    9.3390 O.2   147  SER147     -0.2717
     34  CB       -16.7350   39.6100    9.2770 C.3   147  SER147      0.2103
     35  OG       -16.7800   40.9720    9.5980 O.3   147  SER147     -0.2182
     36  N        -16.8590   36.6100    9.7580 N.am  148  LEU148     -0.1965
     37  CA       -16.8110   35.3330    9.0630 C.3   148  LEU148      0.1728
     38  C        -16.4600   35.6350    7.6150 C.2   148  LEU148      0.2616
     39  O        -15.6390   34.9530    7.0290 O.2   148  LEU148     -0.2715
     40  CB       -18.1510   34.5820    9.1520 C.3   148  LEU148      0.0311
     41  CG       -18.6900   34.0530   10.4900 C.3   148  LEU148      0.0022
     42  CD1      -19.9700   33.2530   10.1970 C.3   148  LEU148      0.0001
     43  CD2      -17.7030   33.1820   11.2840 C.3   148  LEU148      0.0001
     44  N        -17.0700   36.6870    7.0630 N.am  149  ALA149     -0.1977
     45  CA       -16.7840   37.1550    5.6990 C.3   149  ALA149      0.1597
     46  C        -15.3680   37.6840    5.5180 C.2   149  ALA149      0.2287
     47  O        -15.0090   38.1060    4.4240 O.2   149  ALA149     -0.2864
     48  CB       -17.8080   38.2180    5.2550 C.3   149  ALA149      0.0319
     49  N        -18.3330   35.0410    0.7830 N.3   154  TYR154     -0.1241
     50  CA       -19.7750   35.1590    0.8390 C.3   154  TYR154      0.1605
     51  C        -20.1770   36.0420   -0.3370 C.2   154  TYR154      0.2264
     52  O        -19.6190   37.1300   -0.5050 O.2   154  TYR154     -0.2867
     53  CB       -20.1210   35.8340    2.1750 C.3   154  TYR154      0.0534
     54  CG       -21.5250   35.6380    2.7040 C.ar  154  TYR154     -0.0201
     55  CD1      -22.5740   36.4160    2.2370 C.ar  154  TYR154     -0.0009
     56  CD2      -21.7940   34.7000    3.6970 C.ar  154  TYR154     -0.0009
     57  CE1      -23.8570   36.2580    2.7170 C.ar  154  TYR154      0.0417
     58  CE2      -23.0860   34.5310    4.1900 C.ar  154  TYR154      0.0417
     59  CZ       -24.1100   35.3170    3.6900 C.ar  154  TYR154      0.1957
     60  OH       -25.3950   35.1720    4.1580 O.3   154  TYR154     -0.2866
     61  N        -21.1040   40.5010   -0.4310 N.3   157  VAL157     -0.1245
     62  CA       -20.3040   41.3000    0.5180 C.3   157  VAL157      0.1561
     63  C        -18.8380   41.4400    0.0370 C.2   157  VAL157      0.2260
     64  O        -17.9190   41.4870    0.8530 O.2   157  VAL157     -0.2867
     65  CB       -20.3610   40.7370    1.9850 C.3   157  VAL157      0.0252
     66  CG1      -21.7930   40.6250    2.4800 C.3   157  VAL157      0.0019
     67  CG2      -19.6610   39.4030    2.1000 C.3   157  VAL157      0.0019
     68  N        -16.5350   44.4740    1.2810 N.3   160  TYR160     -0.1241
     69  CA       -16.3900   44.3310    2.7250 C.3   160  TYR160      0.1605
     70  C        -15.4080   43.2090    3.0580 C.2   160  TYR160      0.2264
     71  O        -14.5160   43.3800    3.8880 O.2   160  TYR160     -0.2867
     72  CB       -17.7530   44.0510    3.3110 C.3   160  TYR160      0.0534
     73  CG       -17.8330   43.6940    4.7760 C.ar  160  TYR160     -0.0201
     74  CD1      -17.9040   44.6850    5.7530 C.ar  160  TYR160     -0.0009
     75  CD2      -17.9090   42.3520    5.1770 C.ar  160  TYR160     -0.0009
     76  CE1      -18.0200   44.3560    7.0750 C.ar  160  TYR160      0.0417
     77  CE2      -18.0250   42.0120    6.5090 C.ar  160  TYR160      0.0417
     78  CZ       -18.0960   43.0080    7.4530 C.ar  160  TYR160      0.1957
     79  OH       -18.2430   42.6640    8.7920 O.3   160  TYR160     -0.2866
     80  N        -16.3610   37.4250   13.7100 N.3   192  LEU192     -0.1231
     81  CA       -17.7450   37.4060   14.1760 C.3   192  LEU192      0.1693
     82  C        -18.7590   36.9410   13.1180 C.2   192  LEU192      0.2593
     83  O        -18.6390   37.2740   11.9250 O.2   192  LEU192     -0.2718
     84  CB       -18.1430   38.8090   14.6510 C.3   192  LEU192      0.0284
     85  CG       -17.2720   39.5510   15.6670 C.3   192  LEU192      0.0019
     86  CD1      -17.9360   40.8630   15.9980 C.3   192  LEU192      0.0001
     87  CD2      -17.0410   38.7160   16.9380 C.3   192  LEU192      0.0001
     88  N        -19.7560   36.1770   13.5600 N.am  193  GLY193     -0.1942
     89  CA       -20.8760   35.8180   12.7150 C.3   193  GLY193      0.2014
     90  C        -21.9570   36.8620   12.8560 C.2   193  GLY193      0.2638
     91  O        -21.7060   37.9480   13.3570 O.2   193  GLY193     -0.2714
     92  N        -23.1730   36.5370   12.4310 N.am  194  LEU194     -0.1977
     93  CA       -24.2610   37.5100   12.4710 C.3   194  LEU194      0.1596
     94  C        -24.5300   37.9020   13.9150 C.2   194  LEU194      0.2287
     95  O        -24.5920   37.0430   14.7870 O.2   194  LEU194     -0.2864
     96  CB       -25.5230   36.9840   11.7610 C.3   194  LEU194      0.0297
     97  CG       -26.6110   38.0300   11.4900 C.3   194  LEU194      0.0022
     98  CD1      -26.1510   39.1220   10.5030 C.3   194  LEU194      0.0001
     99  CD2      -27.9350   37.3810   11.0360 C.3   194  LEU194      0.0001
    100  N        -28.0880   47.8050   12.4120 N.3   199  THR199     -0.1203
    101  CA       -27.5500   47.9510   11.0680 C.3   199  THR199      0.1994
    102  C        -27.5030   46.6350   10.2680 C.2   199  THR199      0.2617
    103  O        -27.9000   46.5920    9.0950 O.2   199  THR199     -0.2717
    104  CB       -26.1970   48.6940   11.1110 C.3   199  THR199      0.1784
    105  OG1      -26.3810   50.0000   10.5590 O.3   199  THR199     -0.2211
    106  CG2      -25.1300   47.9690   10.3200 C.3   199  THR199      0.0376
    107  N        -27.0420   45.5720   10.9160 N.am  200  ALA200     -0.1979
    108  CA       -26.9130   44.2770   10.2740 C.3   200  ALA200      0.1597
    109  C        -28.2790   43.6390   10.0310 C.2   200  ALA200      0.2287
    110  O        -28.4890   43.0350    8.9790 O.2   200  ALA200     -0.2864
    111  CB       -26.0340   43.3520   11.0980 C.3   200  ALA200      0.0319
    112  N        -29.7940   45.1580    6.9930 N.3   203  ALA203     -0.1231
    113  CA       -29.0200   44.8730    5.7730 C.3   203  ALA203      0.1694
    114  C        -29.1840   43.4440    5.2740 C.2   203  ALA203      0.2591
    115  O        -29.1690   43.1990    4.0640 O.2   203  ALA203     -0.2718
    116  CB       -27.5400   45.1980    5.9750 C.3   203  ALA203      0.0304
    117  N        -29.3200   42.5040    6.2030 N.am  204  VAL204     -0.1980
    118  CA       -29.5450   41.1070    5.8440 C.3   204  VAL204      0.1595
    119  C        -31.0190   40.8490    5.4840 C.2   204  VAL204      0.2287
    120  O        -31.4970   39.7070    5.4990 O.2   204  VAL204     -0.2864
    121  CB       -29.0960   40.1470    6.9630 C.3   204  VAL204      0.0276
    122  CG1      -27.5800   40.2250    7.1640 C.3   204  VAL204      0.0022
    123  CG2      -29.8670   40.4300    8.2620 C.3   204  VAL204      0.0022
@<TRIPOS>BOND
     1    25    24    2
     2    24    23    1
     3    52    51    2
     4    61    62    1
     5    51    50    1
     6    63    62    1
     7    63    64    2
     8    23    26    1
     9    23    22    1
    10    62    65    1
    11    19    18    2
    12    49    50    1
    13    50    53    1
    14    20    21    1
    15    20    17    1
    16    26    27    1
    17    18    22   am
    18    18    17    1
    19    68    69    1
    20    17    16    1
    21    65    67    1
    22    65    66    1
    23    16    11   am
    24    53    54    1
    25    55    54   ar
    26    55    57   ar
    27    29    27    1
    28    15    13    1
    29    27    28    1
    30    54    56   ar
    31    57    59   ar
    32    69    70    1
    33    69    72    1
    34    70    71    2
    35    11    10    1
    36    11    12    2
    37    10    13    1
    38    10     9    1
    39    72    73    1
    40    13    14    1
    41    59    60    1
    42    59    58   ar
    43    56    58   ar
    44   115   114    2
    45    47    46    2
    46    73    75   ar
    47    73    74   ar
    48    75    77   ar
    49    48    45    1
    50   114   113    1
    51   114   117   am
    52   119   120    2
    53   119   118    1
    54    46    45    1
    55    45    44    1
    56    74    76   ar
    57   113   116    1
    58   113   112    1
    59   118   117    1
    60   118   121    1
    61    77    78   ar
    62   121   122    1
    63   121   123    1
    64    39    38    2
    65    44    38   am
    66    76    78   ar
    67    78    79    1
    68    38    37    1
    69     3     4    2
    70     3     2    1
    71   110   109    2
    72     5     2    1
    73     5     7    1
    74     5     6    1
    75    37    40    1
    76    37    36    1
    77   103   102    2
    78    40    41    1
    79     2     1    1
    80    34    35    1
    81    34    31    1
    82    33    32    2
    83     8     6    1
    84    36    32   am
    85    32    31    1
    86   109   108    1
    87    42    41    1
    88   102   107   am
    89   102   101    1
    90   108   107    1
    91   108   111    1
    92   106   104    1
    93    31    30    1
    94    41    43    1
    95    98    97    1
    96   105   104    1
    97    99    97    1
    98   101   104    1
    99   101   100    1
   100    97    96    1
   101    96    93    1
   102    83    82    2
   103    92    93    1
   104    92    90   am
   105    93    94    1
   106    89    90    1
   107    89    88    1
   108    90    91    2
   109    82    88   am
   110    82    81    1
   111    80    81    1
   112    94    95    2
   113    81    84    1
   114    84    85    1
   115    85    86    1
   116    85    87    1
