@<TRIPOS>MOLECULE
tmp/3bzyB00.pdb
 81 75 0 0 0
SMALL
GASTEIGER

@<TRIPOS>ATOM
      1  N        -11.8110  -20.8460  -12.1250 N.3     7  CYS7       -0.1235
      2  CA       -13.0030  -20.7380  -12.9400 C.3     7  CYS7        0.1677
      3  C        -13.2800  -22.1020  -13.6230 C.2     7  CYS7        0.2270
      4  O        -12.4600  -22.5270  -14.4370 O.2     7  CYS7       -0.2867
      5  CB       -12.7550  -19.6590  -14.0420 C.3     7  CYS7        0.0956
      6  SG       -14.2020  -19.4110  -15.1330 S.3     7  CYS7       -0.0801
      7  N         -9.9670  -20.8170  -16.5030 N.3    22  GLU22      -0.1231
      8  CA        -9.1380  -19.6670  -16.0570 C.3    22  GLU22       0.1699
      9  C         -8.8370  -19.8460  -14.6530 C.2    22  GLU22       0.2592
     10  O         -9.5830  -20.4260  -13.8540 O.2    22  GLU22      -0.2718
     11  CB        -9.8180  -18.2850  -16.1490 C.3    22  GLU22       0.0402
     12  CG       -10.2000  -17.8360  -17.5170 C.3    22  GLU22       0.1161
     13  CD        -9.0220  -17.3530  -18.3480 C.2    22  GLU22       0.3649
     14  OE1       -9.2560  -16.9920  -19.5210 O.co2  22  GLU22      -0.2457
     15  OE2       -7.8780  -17.2060  -17.8350 O.co2  22  GLU22      -0.2457
     16  N         -7.7060  -19.2860  -14.2560 N.am   23  THR23      -0.1953
     17  CA        -7.2350  -19.2330  -12.8890 C.3    23  THR23       0.1897
     18  C         -6.5920  -17.9170  -12.6270 C.2    23  THR23       0.2313
     19  O         -6.0850  -17.2370  -13.5700 O.2    23  THR23      -0.2863
     20  CB        -6.2460  -20.3270  -12.5620 C.3    23  THR23       0.1794
     21  OG1       -5.0110  -20.0570  -13.2500 O.3    23  THR23      -0.2208
     22  CG2       -6.6630  -21.7100  -12.8720 C.3    23  THR23       0.0378
     23  N         -4.9980  -10.7890  -10.1930 N.3    28  LYS28      -0.1245
     24  CA        -5.8310  -11.4580  -11.1560 C.3    28  LYS28       0.1561
     25  C         -7.0100  -12.1820  -10.5410 C.2    28  LYS28       0.2260
     26  O         -8.0860  -12.2180  -11.1430 O.2    28  LYS28      -0.2867
     27  CB        -4.9820  -12.3450  -11.9450 C.3    28  LYS28       0.0271
     28  CG        -5.6680  -13.0340  -13.1080 C.3    28  LYS28       0.0035
     29  CD        -6.2380  -12.1150  -14.2340 C.3    28  LYS28       0.0206
     30  CE        -5.1610  -11.2460  -14.7680 C.3    28  LYS28       0.1093
     31  NZ        -5.6710  -10.4260  -15.9610 N.3    28  LYS28      -0.1314
     32  N         -9.5650   -9.5270   -9.9490 N.3    31  GLN31      -0.1231
     33  CA       -10.2670   -9.1850  -11.2400 C.3    31  GLN31       0.1698
     34  C        -11.2810  -10.2010  -11.6580 C.2    31  GLN31       0.2592
     35  O        -12.3480   -9.8810  -12.1190 O.2    31  GLN31      -0.2718
     36  CB        -9.1820   -9.0380  -12.3030 C.3    31  GLN31       0.0381
     37  CG        -9.7390   -8.5130  -13.6070 C.3    31  GLN31       0.0905
     38  CD        -8.7220   -8.4370  -14.6450 C.2    31  GLN31       0.2608
     39  OE1       -7.5920   -8.9780  -14.5070 O.2    31  GLN31      -0.2717
     40  NE2       -9.0250   -7.7290  -15.7600 N.am   31  GLN31      -0.0878
     41  N        -10.9050  -11.4890  -11.5150 N.am   32  ILE32      -0.1980
     42  CA       -11.8350  -12.5660  -11.8370 C.3    32  ILE32       0.1595
     43  C        -13.1000  -12.4480  -11.0120 C.2    32  ILE32       0.2287
     44  O        -14.2020  -12.6300  -11.5490 O.2    32  ILE32      -0.2864
     45  CB       -11.2000  -13.9530  -11.6500 C.3    32  ILE32       0.0276
     46  CG1      -10.1520  -14.2050  -12.7400 C.3    32  ILE32       0.0022
     47  CG2      -12.1880  -15.0820  -11.5650 C.3    32  ILE32       0.0022
     48  CD1       -9.2580  -15.4360  -12.5380 C.3    32  ILE32       0.0001
     49  N        -15.2600   -9.6780  -12.3500 N.3    35  LEU35      -0.1231
     50  CA       -15.8980  -10.1460  -13.5850 C.3    35  LEU35       0.1693
     51  C        -17.0190  -11.1300  -13.2990 C.2    35  LEU35       0.2591
     52  O        -18.0480  -11.0840  -13.9340 O.2    35  LEU35      -0.2718
     53  CB       -14.8820  -10.6990  -14.5360 C.3    35  LEU35       0.0284
     54  CG       -13.8560   -9.7240  -15.1690 C.3    35  LEU35       0.0019
     55  CD1      -12.7240  -10.4640  -15.8660 C.3    35  LEU35       0.0001
     56  CD2      -14.5630   -8.6960  -16.1110 C.3    35  LEU35       0.0001
     57  N        -16.8410  -11.9950  -12.3010 N.am   36  ALA36      -0.1980
     58  CA       -17.8780  -12.9000  -11.8970 C.3    36  ALA36       0.1597
     59  C        -19.1330  -12.1550  -11.4550 C.2    36  ALA36       0.2287
     60  O        -20.2640  -12.5150  -11.7970 O.2    36  ALA36      -0.2864
     61  CB       -17.3810  -13.7980  -10.7810 C.3    36  ALA36       0.0319
     62  N        -20.9320  -10.6620  -14.5490 N.3    39  TYR39      -0.1241
     63  CA       -21.6140  -11.6470  -15.3890 C.3    39  TYR39       0.1605
     64  C        -22.5410  -12.5620  -14.5800 C.2    39  TYR39       0.2264
     65  O        -23.0420  -13.5320  -15.1550 O.2    39  TYR39      -0.2867
     66  CB       -20.6030  -12.4210  -16.1760 C.3    39  TYR39       0.0534
     67  CG       -19.7610  -11.5760  -17.1210 C.ar   39  TYR39      -0.0201
     68  CD1      -18.4010  -11.6580  -17.1140 C.ar   39  TYR39      -0.0009
     69  CD2      -20.3340  -10.6830  -18.0240 C.ar   39  TYR39      -0.0009
     70  CE1      -17.5910  -10.9040  -17.9410 C.ar   39  TYR39       0.0417
     71  CE2      -19.5160   -9.9020  -18.8430 C.ar   39  TYR39       0.0417
     72  CZ       -18.1380  -10.0310  -18.7980 C.ar   39  TYR39       0.1957
     73  OH       -17.3720   -9.2740  -19.6450 O.3    39  TYR39      -0.2866
     74  N        -21.8720  -14.8200  -12.2740 N.3    41  ILE41      -0.1245
     75  CA       -21.3790  -16.1870  -12.1530 C.3    41  ILE41       0.1561
     76  C        -21.3320  -16.5220  -10.6650 C.2    41  ILE41       0.2260
     77  O        -20.7460  -15.7790   -9.8920 O.2    41  ILE41      -0.2867
     78  CB       -19.9840  -16.3300  -12.7440 C.3    41  ILE41       0.0252
     79  CG1      -19.8960  -15.7400  -14.1660 C.3    41  ILE41       0.0019
     80  CG2      -19.5270  -17.7920  -12.7030 C.3    41  ILE41       0.0019
     81  CD1      -20.8440  -16.3640  -15.1250 C.3    41  ILE41       0.0001
@<TRIPOS>BOND
     1    73    72    1
     2    14    13   ar
     3    71    72   ar
     4    71    69   ar
     5    72    70   ar
     6    13    15   ar
     7    13    12    1
     8    69    67   ar
     9    70    68   ar
    10    12    11    1
    11    67    68   ar
    12    67    66    1
    13     7     8    1
    14    66    63    1
    15    11     8    1
    16    56    54    1
    17     8     9    1
    18    31    30    1
    19    55    54    1
    20    40    38   am
    21    63    64    1
    22    63    62    1
    23    54    53    1
    24    65    64    2
    25     6     5    1
    26    81    79    1
    27    30    29    1
    28     9    16   am
    29     9    10    2
    30    38    39    2
    31    38    37    1
    32    53    50    1
    33     4     3    2
    34    16    17    1
    35    29    28    1
    36    79    78    1
    37     5     2    1
    38    52    51    2
    39     3     2    1
    40    37    36    1
    41    50    51    1
    42    50    49    1
    43    19    18    2
    44    51    57   am
    45    21    20    1
    46    28    27    1
    47     2     1    1
    48    17    18    1
    49    17    20    1
    50    22    20    1
    51    78    80    1
    52    78    75    1
    53    46    48    1
    54    46    45    1
    55    36    33    1
    56    57    58    1
    57    74    75    1
    58    75    76    1
    59    35    34    2
    60    27    24    1
    61    58    59    1
    62    58    61    1
    63    42    45    1
    64    42    41    1
    65    42    43    1
    66    60    59    2
    67    34    41   am
    68    34    33    1
    69    45    47    1
    70    44    43    2
    71    33    32    1
    72    24    25    1
    73    24    23    1
    74    26    25    2
    75    76    77    2
