@<TRIPOS>MOLECULE
tmp/3c06A01.pdb
 142 140 0 0 0
SMALL
GASTEIGER

@<TRIPOS>ATOM
      1  N         26.8010  -34.6370    2.8700 N.3    56  LEU56      -0.1245
      2  CA        27.4360  -35.1690    1.6990 C.3    56  LEU56       0.1561
      3  C         28.2500  -34.1270    0.9730 C.2    56  LEU56       0.2260
      4  O         29.3900  -34.3930    0.5730 O.2    56  LEU56      -0.2867
      5  CB        26.3810  -35.7580    0.7970 C.3    56  LEU56       0.0270
      6  CG        26.3270  -37.2890    0.6580 C.3    56  LEU56       0.0019
      7  CD1       26.5500  -38.0980    1.9630 C.3    56  LEU56       0.0001
      8  CD2       25.0280  -37.5830   -0.0470 C.3    56  LEU56       0.0001
      9  N         32.6750  -34.3120    0.9030 N.3    60  GLU60      -0.1245
     10  CA        33.3500  -34.3130   -0.3970 C.3    60  GLU60       0.1567
     11  C         34.1710  -33.0700   -0.5260 C.2    60  GLU60       0.2260
     12  O         35.2870  -33.1170   -0.9960 O.2    60  GLU60      -0.2867
     13  CB        32.3830  -34.4730   -1.5940 C.3    60  GLU60       0.0388
     14  CG        31.9810  -33.1400   -2.2640 C.3    60  GLU60       0.1160
     15  CD        31.4060  -33.3490   -3.6270 C.2    60  GLU60       0.3649
     16  OE1       30.2020  -33.0150   -3.8180 O.co2  60  GLU60      -0.2457
     17  OE2       32.1260  -33.9080   -4.4810 O.co2  60  GLU60      -0.2457
     18  N         38.1230  -32.7660   -1.0640 N.3    64  PHE64      -0.1241
     19  CA        38.8570  -31.8310   -1.9510 C.3    64  PHE64       0.1605
     20  C         39.8840  -30.9590   -1.2450 C.2    64  PHE64       0.2264
     21  O         41.0180  -30.8120   -1.7290 O.2    64  PHE64      -0.2867
     22  CB        37.9790  -30.8770   -2.7790 C.3    64  PHE64       0.0534
     23  CG        36.9450  -31.5540   -3.6620 C.ar   64  PHE64      -0.0203
     24  CD1       37.0950  -32.8870   -4.0760 C.ar   64  PHE64      -0.0042
     25  CD2       35.7990  -30.8240   -4.0950 C.ar   64  PHE64      -0.0042
     26  CE1       36.1090  -33.5010   -4.8640 C.ar   64  PHE64      -0.0003
     27  CE2       34.8410  -31.4350   -4.9290 C.ar   64  PHE64      -0.0003
     28  CZ        35.0000  -32.7880   -5.3030 C.ar   64  PHE64      -0.0000
     29  N         28.7590  -41.7580   -0.3330 N.3    80  HIS80      -0.1226
     30  CA        28.8370  -42.7940   -1.3830 C.3    80  HIS80       0.1752
     31  C         28.7940  -42.2350   -2.7930 C.2    80  HIS80       0.2596
     32  O         28.8200  -42.9900   -3.7690 O.2    80  HIS80      -0.2718
     33  CB        27.7490  -43.8520   -1.2000 C.3    80  HIS80       0.0759
     34  CG        27.9030  -44.6420    0.0520 C.ar   80  HIS80       0.0818
     35  ND1       28.8760  -45.6090    0.2070 N.ar   80  HIS80      -0.2268
     36  CD2       27.2420  -44.5750    1.2300 C.ar   80  HIS80       0.1154
     37  CE1       28.8020  -46.1050    1.4290 C.ar   80  HIS80       0.1986
     38  NE2       27.8270  -45.4870    2.0740 N.ar   80  HIS80      -0.2212
     39  N         28.7290  -40.9030   -2.8630 N.am   81  ILE81      -0.1966
     40  CA        28.8030  -40.0650   -4.0770 C.3    81  ILE81       0.1727
     41  C         29.7300  -40.5790   -5.1750 C.2    81  ILE81       0.2616
     42  O         29.3650  -40.5250   -6.3400 O.2    81  ILE81      -0.2715
     43  CB        29.2620  -38.6150   -3.7030 C.3    81  ILE81       0.0290
     44  CG1       28.0930  -37.7180   -3.3030 C.3    81  ILE81       0.0022
     45  CG2       29.9750  -37.9230   -4.8490 C.3    81  ILE81       0.0023
     46  CD1       28.5120  -36.1880   -3.2520 C.3    81  ILE81       0.0001
     47  N         30.9220  -41.0580   -4.8120 N.am   82  TRP82      -0.1974
     48  CA        31.9760  -41.3710   -5.7890 C.3    82  TRP82       0.1640
     49  C         32.3170  -42.8510   -5.8390 C.2    82  TRP82       0.2290
     50  O         33.3490  -43.2170   -6.4290 O.2    82  TRP82      -0.2864
     51  CB        33.2720  -40.5970   -5.5020 C.3    82  TRP82       0.0576
     52  CG        33.3290  -39.1600   -5.9240 C.ar   82  TRP82       0.0006
     53  CD1       32.9310  -38.0750   -5.1950 C.ar   82  TRP82       0.0946
     54  CD2       33.8940  -38.6330   -7.1440 C.ar   82  TRP82       0.0152
     55  NE1       33.1830  -36.9060   -5.8930 N.ar   82  TRP82      -0.2442
     56  CE2       33.7710  -37.2220   -7.0900 C.ar   82  TRP82       0.0810
     57  CE3       34.4750  -39.2180   -8.2840 C.ar   82  TRP82       0.0012
     58  CZ2       34.2110  -36.3850   -8.1300 C.ar   82  TRP82       0.0191
     59  CZ3       34.9260  -38.3760   -9.3210 C.ar   82  TRP82       0.0001
     60  CH2       34.7860  -36.9760   -9.2280 C.ar   82  TRP82       0.0015
     61  N         33.1040  -45.0910   -9.6660 N.3    85  TRP85      -0.1241
     62  CA        34.2840  -44.9600  -10.5080 C.3    85  TRP85       0.1605
     63  C         35.4950  -45.6290   -9.9180 C.2    85  TRP85       0.2264
     64  O         36.4560  -45.8930  -10.6390 O.2    85  TRP85      -0.2867
     65  CB        34.6080  -43.4850  -10.7320 C.3    85  TRP85       0.0550
     66  CG        33.3910  -42.6290  -10.7940 C.ar   85  TRP85       0.0003
     67  CD1       32.6600  -42.1710   -9.7330 C.ar   85  TRP85       0.0946
     68  CD2       32.7420  -42.1420  -11.9670 C.ar   85  TRP85       0.0152
     69  NE1       31.5950  -41.4230  -10.1680 N.ar   85  TRP85      -0.2442
     70  CE2       31.6170  -41.3790  -11.5350 C.ar   85  TRP85       0.0810
     71  CE3       32.9960  -42.2700  -13.3430 C.ar   85  TRP85       0.0012
     72  CZ2       30.7370  -40.7420  -12.4270 C.ar   85  TRP85       0.0191
     73  CZ3       32.1130  -41.6360  -14.2480 C.ar   85  TRP85       0.0001
     74  CH2       30.9920  -40.8830  -13.7750 C.ar   85  TRP85       0.0015
     75  N         39.1930  -33.8940   -8.3120 N.3   134  TYR134     -0.1241
     76  CA        39.3960  -32.4660   -7.9410 C.3   134  TYR134      0.1605
     77  C         40.4500  -32.2000   -6.8870 C.2   134  TYR134      0.2264
     78  O         41.0030  -31.1030   -6.8280 O.2   134  TYR134     -0.2867
     79  CB        38.0600  -31.7870   -7.5640 C.3   134  TYR134      0.0534
     80  CG        37.0560  -31.7260   -8.7410 C.ar  134  TYR134     -0.0201
     81  CD1       37.2940  -30.9280   -9.8380 C.ar  134  TYR134     -0.0009
     82  CD2       35.8910  -32.4660   -8.7300 C.ar  134  TYR134     -0.0009
     83  CE1       36.4080  -30.8720  -10.8910 C.ar  134  TYR134      0.0417
     84  CE2       34.9930  -32.4050   -9.7730 C.ar  134  TYR134      0.0417
     85  CZ        35.2630  -31.6050  -10.8640 C.ar  134  TYR134      0.1957
     86  OH        34.3740  -31.5320  -11.9160 O.3   134  TYR134     -0.2866
     87  N         36.5720  -38.9630  -16.1720 N.3   183  LEU183     -0.1245
     88  CA        35.7080  -37.7770  -16.3530 C.3   183  LEU183      0.1561
     89  C         36.5210  -36.5090  -16.5050 C.2   183  LEU183      0.2260
     90  O         36.9880  -35.9320  -15.5120 O.2   183  LEU183     -0.2867
     91  CB        34.5900  -37.5980  -15.2790 C.3   183  LEU183      0.0270
     92  CG        33.4850  -36.5390  -15.6580 C.3   183  LEU183      0.0019
     93  CD1       32.4610  -36.9500  -16.7620 C.3   183  LEU183      0.0001
     94  CD2       32.7090  -35.9800  -14.4520 C.3   183  LEU183      0.0001
     95  N         33.5980  -29.1960  -13.6190 N.3   187  HIS187     -0.1241
     96  CA        33.8820  -27.9070  -12.9990 C.3   187  HIS187      0.1621
     97  C         35.2020  -27.3480  -13.4380 C.2   187  HIS187      0.2264
     98  O         36.2120  -27.3800  -12.7090 O.2   187  HIS187     -0.2867
     99  CB        33.8220  -28.0630  -11.4870 C.3   187  HIS187      0.0745
    100  CG        32.5140  -28.6020  -11.0530 C.ar  187  HIS187      0.0817
    101  ND1       32.3890  -29.7350  -10.2800 N.ar  187  HIS187     -0.2268
    102  CD2       31.2620  -28.2260  -11.3940 C.ar  187  HIS187      0.1154
    103  CE1       31.1100  -30.0060  -10.1210 C.ar  187  HIS187      0.1986
    104  NE2       30.4060  -29.0970  -10.7780 N.ar  187  HIS187     -0.2212
    105  N         19.9010  -33.6830  -11.3640 N.3   212  LEU212     -0.1231
    106  CA        20.7440  -34.3780  -10.3810 C.3   212  LEU212      0.1693
    107  C         21.9930  -33.6490   -9.8800 C.2   212  LEU212      0.2592
    108  O         22.2900  -33.6740   -8.6900 O.2   212  LEU212     -0.2718
    109  CB        21.1790  -35.7180  -10.9490 C.3   212  LEU212      0.0284
    110  CG        20.7600  -37.0480  -10.3250 C.3   212  LEU212      0.0019
    111  CD1       19.7560  -36.9920   -9.1410 C.3   212  LEU212      0.0001
    112  CD2       20.2460  -37.8500  -11.4710 C.3   212  LEU212      0.0001
    113  N         22.7450  -33.0240  -10.7800 N.am  213  GLY213     -0.1957
    114  CA        24.0340  -32.4960  -10.4110 C.3   213  GLY213      0.1869
    115  C         24.0740  -31.1130   -9.8060 C.2   213  GLY213      0.2309
    116  O         24.8300  -30.8810   -8.8300 O.2   213  GLY213     -0.2863
    117  N         23.6030  -29.9440   -5.9180 N.3   216  PHE216     -0.1227
    118  CA        24.9140  -30.1740   -5.2170 C.3   216  PHE216      0.1736
    119  C         26.0140  -29.1950   -5.5510 C.2   216  PHE216      0.2595
    120  O         26.6890  -28.6940   -4.6650 O.2   216  PHE216     -0.2718
    121  CB        25.5190  -31.5310   -5.6160 C.3   216  PHE216      0.0547
    122  CG        24.9950  -32.6800   -4.8510 C.ar  216  PHE216     -0.0202
    123  CD1       23.6220  -33.0080   -4.9150 C.ar  216  PHE216     -0.0042
    124  CD2       25.8680  -33.4620   -4.0830 C.ar  216  PHE216     -0.0042
    125  CE1       23.1050  -34.1050   -4.2080 C.ar  216  PHE216     -0.0003
    126  CE2       25.3940  -34.5720   -3.3840 C.ar  216  PHE216     -0.0003
    127  CZ        23.9930  -34.9000   -3.4410 C.ar  216  PHE216     -0.0000
    128  N         26.2370  -29.0060   -6.8520 N.am  217  ASN217     -0.1974
    129  CA        27.3500  -28.1890   -7.3530 C.3   217  ASN217      0.1688
    130  C         27.2440  -26.7660   -6.8840 C.2   217  ASN217      0.2292
    131  O         28.2850  -26.1300   -6.6260 O.2   217  ASN217     -0.2864
    132  CB        27.4360  -28.1860   -8.8950 C.3   217  ASN217      0.1181
    133  CG        27.4910  -29.5700   -9.5000 C.2   217  ASN217      0.2629
    134  OD1       27.2270  -29.7460  -10.6780 O.2   217  ASN217     -0.2716
    135  ND2       27.8340  -30.5560   -8.7030 N.am  217  ASN217     -0.0877
    136  N         19.3960  -41.6910  -12.5020 N.3   301  VAL301     -0.1245
    137  CA        20.7040  -41.0490  -12.7980 C.3   301  VAL301      0.1561
    138  C         21.0720  -41.4520  -14.2320 C.2   301  VAL301      0.2260
    139  O         21.5690  -42.5550  -14.4620 O.2   301  VAL301     -0.2867
    140  CB        21.7810  -41.5740  -11.7930 C.3   301  VAL301      0.0252
    141  CG1       23.2000  -41.0230  -12.1180 C.3   301  VAL301      0.0019
    142  CG2       21.3650  -41.2710  -10.3450 C.3   301  VAL301      0.0019
@<TRIPOS>BOND
     1    93    92    1
     2    89    88    1
     3    89    90    2
     4    88    87    1
     5    88    91    1
     6    92    91    1
     7    92    94    1
     8   139   138    2
     9    73    74   ar
    10    73    71   ar
    11   138   137    1
    12    74    72   ar
    13    95    96    1
    14    97    96    1
    15    97    98    2
    16    71    68   ar
    17    96    99    1
    18   137   136    1
    19   137   140    1
    20    72    70   ar
    21   141   140    1
    22    68    70   ar
    23    68    66   ar
    24    86    85    1
    25   140   142    1
    26    70    69   ar
    27    99   100    1
    28   112   110    1
    29   102   100   ar
    30   102   104   ar
    31   105   106    1
    32   100   101   ar
    33   109   106    1
    34   109   110    1
    35    83    85   ar
    36    83    81   ar
    37    85    84   ar
    38    66    65    1
    39    66    67   ar
    40   113   114    1
    41   113   107   am
    42   104   103   ar
    43    65    62    1
    44   134   133    2
    45    64    63    2
    46    62    63    1
    47    62    61    1
    48   114   115    1
    49   106   107    1
    50   110   111    1
    51   101   103   ar
    52    69    67   ar
    53   107   108    2
    54    81    80   ar
    55   115   116    2
    56    84    82   ar
    57   133   132    1
    58   133   135   am
    59    59    60   ar
    60    59    57   ar
    61    60    58   ar
    62   132   129    1
    63    80    82   ar
    64    80    79    1
    65    75    76    1
    66    57    54   ar
    67    58    56   ar
    68    76    79    1
    69    76    77    1
    70   129   130    1
    71   129   128    1
    72    54    56   ar
    73    54    52   ar
    74    56    55   ar
    75    77    78    2
    76   130   131    2
    77   128   119   am
    78    50    49    2
    79    42    41    2
    80    52    51    1
    81    52    53   ar
    82   117   118    1
    83    55    53   ar
    84    49    48    1
    85    48    51    1
    86    48    47    1
    87   121   118    1
    88   121   122    1
    89   119   118    1
    90   119   120    2
    91    28    27   ar
    92    28    26   ar
    93    41    47   am
    94    41    40    1
    95    27    25   ar
    96   123   122   ar
    97   123   125   ar
    98    26    24   ar
    99   122   124   ar
   100    45    43    1
   101    17    15   ar
   102   125   127   ar
   103    25    23   ar
   104   124   126   ar
   105    40    43    1
   106    40    39    1
   107    24    23   ar
   108    16    15   ar
   109    32    31    2
   110    43    44    1
   111    23    22    1
   112    15    14    1
   113   127   126   ar
   114    44    46    1
   115    39    31   am
   116    31    30    1
   117    22    19    1
   118    14    13    1
   119    19    20    1
   120    19    18    1
   121    21    20    2
   122    13    10    1
   123    30    33    1
   124    30    29    1
   125    33    34    1
   126    12    11    2
   127    11    10    1
   128    10     9    1
   129     8     6    1
   130    34    35   ar
   131    34    36   ar
   132    35    37   ar
   133     4     3    2
   134     6     5    1
   135     6     7    1
   136     5     2    1
   137     3     2    1
   138    36    38   ar
   139    37    38   ar
   140     2     1    1
