@<TRIPOS>MOLECULE
tmp/3c0aA00.pdb
 130 128 0 0 0
SMALL
GASTEIGER

@<TRIPOS>ATOM
      1  N        -23.8320   10.1490   33.3230 N.3    78  TRP78      -0.1241
      2  CA       -23.0980   10.8610   32.2650 C.3    78  TRP78       0.1605
      3  C        -21.6410   10.4770   32.1050 C.2    78  TRP78       0.2264
      4  O        -20.9510   11.0830   31.2840 O.2    78  TRP78      -0.2867
      5  CB       -23.2030   12.3720   32.4320 C.3    78  TRP78       0.0550
      6  CG       -24.4470   12.9460   31.9050 C.ar   78  TRP78       0.0003
      7  CD1      -25.6030   13.1150   32.5780 C.ar   78  TRP78       0.0946
      8  CD2      -24.6570   13.4730   30.5860 C.ar   78  TRP78       0.0152
      9  NE1      -26.5480   13.6970   31.7570 N.ar   78  TRP78      -0.2442
     10  CE2      -25.9840   13.9450   30.5330 C.ar   78  TRP78       0.0810
     11  CE3      -23.8490   13.5970   29.4490 C.ar   78  TRP78       0.0012
     12  CZ2      -26.5390   14.5250   29.3760 C.ar   78  TRP78       0.0191
     13  CZ3      -24.3960   14.1830   28.2910 C.ar   78  TRP78       0.0001
     14  CH2      -25.7370   14.6280   28.2640 C.ar   78  TRP78       0.0015
     15  N        -25.8010   20.1310   28.7700 N.3   122  TYR122     -0.1241
     16  CA       -26.9350   21.0300   29.0880 C.3   122  TYR122      0.1605
     17  C        -26.7220   22.1730   30.0840 C.2   122  TYR122      0.2264
     18  O        -27.4180   23.2020   30.0230 O.2   122  TYR122     -0.2867
     19  CB       -28.2000   20.2200   29.5490 C.3   122  TYR122      0.0534
     20  CG       -28.7670   19.3570   28.4430 C.ar  122  TYR122     -0.0201
     21  CD1      -29.5520   19.9270   27.4000 C.ar  122  TYR122     -0.0009
     22  CD2      -28.4490   17.9900   28.3720 C.ar  122  TYR122     -0.0009
     23  CE1      -30.0320   19.1360   26.3400 C.ar  122  TYR122      0.0417
     24  CE2      -28.9180   17.1830   27.3260 C.ar  122  TYR122      0.0417
     25  CZ       -29.7160   17.7720   26.3200 C.ar  122  TYR122      0.1957
     26  OH       -30.1680   16.9790   25.3040 O.3   122  TYR122     -0.2866
     27  N        -22.0300   15.0450   21.3620 N.3   171  LEU171     -0.1231
     28  CA       -23.4330   14.6380   21.2830 C.3   171  LEU171      0.1678
     29  C        -24.4190   15.8360   21.1200 C.2   171  LEU171      0.2434
     30  O        -24.7560   16.4990   22.0970 O.2   171  LEU171     -0.2733
     31  CB       -23.7700   13.7040   22.4820 C.3   171  LEU171      0.0284
     32  CG       -25.1920   13.0990   22.6640 C.3   171  LEU171      0.0019
     33  CD1      -25.8910   12.5770   21.3550 C.3   171  LEU171      0.0001
     34  CD2      -25.1940   11.9960   23.7620 C.3   171  LEU171      0.0001
     35  N        -24.8530   16.1370   19.8730 N.am  172  PRO172     -0.2729
     36  CA       -25.8930   17.1980   19.6280 C.3   172  PRO172      0.1401
     37  C        -27.1430   16.9900   20.4890 C.2   172  PRO172      0.2269
     38  O        -27.7640   15.9500   20.3730 O.2   172  PRO172     -0.2865
     39  CB       -26.2870   16.9850   18.1560 C.3   172  PRO172      0.0296
     40  CG       -25.1640   16.3120   17.5440 C.3   172  PRO172      0.0237
     41  CD       -24.4010   15.5130   18.6130 C.3   172  PRO172      0.0939
     42  N        -30.4190   16.1310   22.2480 N.3   174  CYS174     -0.1221
     43  CA       -31.6890   15.5180   21.8930 C.3   174  CYS174      0.1808
     44  C        -32.8050   16.3380   22.4100 C.2   174  CYS174      0.2601
     45  O        -33.8640   16.3450   21.8330 O.2   174  CYS174     -0.2717
     46  CB       -31.7910   14.1290   22.5140 C.3   174  CYS174      0.0970
     47  SG       -30.5000   13.1200   21.8620 S.3   174  CYS174     -0.0800
     48  N        -32.5580   17.0200   23.5320 N.am  175  HIS175     -0.1975
     49  CA       -33.5200   17.9210   24.1390 C.3   175  HIS175      0.1656
     50  C        -33.1910   19.2960   23.6190 C.2   175  HIS175      0.2291
     51  O        -32.4670   20.1150   24.2660 O.2   175  HIS175     -0.2864
     52  CB       -33.4640   17.8260   25.6330 C.3   175  HIS175      0.0771
     53  CG       -33.5250   16.4250   26.1230 C.ar  175  HIS175      0.0820
     54  ND1      -33.6630   16.1100   27.4560 N.ar  175  HIS175     -0.2267
     55  CD2      -33.4680   15.2440   25.4580 C.ar  175  HIS175      0.1154
     56  CE1      -33.6610   14.7940   27.5980 C.ar  175  HIS175      0.1986
     57  NE2      -33.5330   14.2420   26.4020 N.ar  175  HIS175     -0.2212
     58  N        -38.0840   17.4240   21.3820 N.3   193  GLN193     -0.1231
     59  CA       -37.0190   16.5210   21.5450 C.3   193  GLN193      0.1698
     60  C        -36.8420   15.9120   20.1730 C.2   193  GLN193      0.2592
     61  O        -37.7600   15.2270   19.6760 O.2   193  GLN193     -0.2718
     62  CB       -37.3630   15.4580   22.6650 C.3   193  GLN193      0.0381
     63  CG       -36.2880   14.3800   22.7530 C.3   193  GLN193      0.0905
     64  CD       -36.3820   13.4310   23.9490 C.2   193  GLN193      0.2608
     65  OE1      -37.1790   13.6160   24.8710 O.2   193  GLN193     -0.2717
     66  NE2      -35.5420   12.4080   23.9350 N.am  193  GLN193     -0.0878
     67  N        -35.6620   16.1010   19.5800 N.am  194  ARG194     -0.1966
     68  CA       -35.4760   15.8190   18.1770 C.3   194  ARG194      0.1729
     69  C        -35.3300   14.3450   17.8600 C.2   194  ARG194      0.2617
     70  O        -35.4430   13.9240   16.6910 O.2   194  ARG194     -0.2715
     71  CB       -34.2610   16.5530   17.6780 C.3   194  ARG194      0.0348
     72  CG       -32.9690   16.0780   18.3230 C.3   194  ARG194      0.0492
     73  CD       -31.7830   16.1820   17.3930 C.3   194  ARG194      0.2205
     74  NE       -30.5810   15.7420   18.0850 N.pl3 194  ARG194     -0.0865
     75  CZ       -30.0280   14.5620   17.9330 C.cat 194  ARG194      0.5346
     76  NH1      -30.5530   13.6660   17.1020 N.pl3 194  ARG194      0.1354
     77  NH2      -28.9510   14.2690   18.6410 N.pl3 194  ARG194      0.1354
     78  N        -34.9810   13.5860   18.9000 N.am  195  SER195     -0.1936
     79  CA       -34.6150   12.1870   18.8340 C.3   195  SER195      0.2055
     80  C        -34.8290   11.6240   20.2190 C.2   195  SER195      0.2643
     81  O        -34.4030   12.2300   21.1920 O.2   195  SER195     -0.2714
     82  CB       -33.1590   12.0790   18.4720 C.3   195  SER195      0.2130
     83  OG       -32.7190   10.7430   18.3600 O.3   195  SER195     -0.2179
     84  N        -35.5070   10.4780   20.3030 N.am  196  ALA196     -0.1963
     85  CA       -35.8900    9.8070   21.5740 C.3   196  ALA196      0.1728
     86  C        -35.7370    8.2540   21.4890 C.2   196  ALA196      0.2616
     87  O        -36.2760    7.6780   20.5630 O.2   196  ALA196     -0.2715
     88  CB       -37.2860   10.1590   21.9030 C.3   196  ALA196      0.0334
     89  N        -34.9700    7.5960   22.3860 N.am  197  ASP197     -0.1971
     90  CA       -35.1400    6.1090   22.5950 C.3   197  ASP197      0.1709
     91  C        -36.2980    5.9730   23.4950 C.2   197  ASP197      0.2293
     92  O        -36.2220    6.4180   24.6400 O.2   197  ASP197     -0.2864
     93  CB       -33.9390    5.3520   23.2190 C.3   197  ASP197      0.1436
     94  CG       -34.2540    3.7980   23.4930 C.2   197  ASP197      0.3671
     95  OD1      -35.3890    3.4440   23.8890 O.co2 197  ASP197     -0.2456
     96  OD2      -33.3940    2.9010   23.3140 O.co2 197  ASP197     -0.2456
     97  N        -34.4840    5.9100   27.1370 N.3   201  GLY201     -0.1225
     98  CA       -34.3980    7.3380   27.5050 C.3   201  GLY201      0.1811
     99  C        -35.6760    8.0320   27.8390 C.2   201  GLY201      0.2280
    100  O        -35.7290    8.8620   28.7960 O.2   201  GLY201     -0.2866
    101  N        -36.5510   11.1720   30.4740 N.3   205  ASN205     -0.1240
    102  CA       -36.8610   12.4610   29.7740 C.3   205  ASN205      0.1653
    103  C        -38.1200   13.0830   30.3180 C.2   205  ASN205      0.2266
    104  O        -38.1330   14.2650   30.6480 O.2   205  ASN205     -0.2867
    105  CB       -36.9800   12.3020   28.2380 C.3   205  ASN205      0.1155
    106  CG       -35.7270   11.7020   27.6020 C.2   205  ASN205      0.2627
    107  OD1      -35.7420   11.1830   26.4560 O.2   205  ASN205     -0.2716
    108  ND2      -34.6350   11.7400   28.3380 N.am  205  ASN205     -0.0877
    109  N        -38.1090    6.5240   18.4560 N.3   235  HIS235     -0.1241
    110  CA       -37.7620    5.2470   17.9010 C.3   235  HIS235      0.1621
    111  C        -37.5320    4.1110   18.9310 C.2   235  HIS235      0.2264
    112  O        -37.1160    4.3530   20.0730 O.2   235  HIS235     -0.2867
    113  CB       -36.5470    5.4270   16.9870 C.3   235  HIS235      0.0745
    114  CG       -35.3080    5.8840   17.6880 C.ar  235  HIS235      0.0817
    115  ND1      -34.8650    7.1910   17.6400 N.ar  235  HIS235     -0.2268
    116  CD2      -34.3960    5.2000   18.4270 C.ar  235  HIS235      0.1154
    117  CE1      -33.7460    7.2920   18.3280 C.ar  235  HIS235      0.1986
    118  NE2      -33.4510    6.1050   18.8330 N.ar  235  HIS235     -0.2212
    119  N        -35.3530    0.5200   19.3840 N.3   237  TYR237     -0.1241
    120  CA       -34.3320   -0.3780   18.8270 C.3   237  TYR237      0.1605
    121  C        -34.9220   -1.7880   18.6650 C.2   237  TYR237      0.2264
    122  O        -35.8120   -2.1820   19.3980 O.2   237  TYR237     -0.2867
    123  CB       -33.0270   -0.3320   19.6250 C.3   237  TYR237      0.0534
    124  CG       -32.2190    0.9420   19.3990 C.ar  237  TYR237     -0.0201
    125  CD1      -31.4600    1.1070   18.2540 C.ar  237  TYR237     -0.0009
    126  CD2      -32.2420    1.9850   20.3210 C.ar  237  TYR237     -0.0009
    127  CE1      -30.7300    2.2880   18.0180 C.ar  237  TYR237      0.0417
    128  CE2      -31.5100    3.1660   20.1120 C.ar  237  TYR237      0.0417
    129  CZ       -30.7440    3.3150   18.9470 C.ar  237  TYR237      0.1957
    130  OH       -29.9840    4.4750   18.7070 O.3   237  TYR237     -0.2866
@<TRIPOS>BOND
     1    70    69    2
     2   113   114    1
     3   113   110    1
     4    76    75    1
     5    73    74    1
     6    73    72    1
     7    40    39    1
     8    40    41    1
     9   115   114   ar
    10   115   117   ar
    11    71    68    1
    12    71    72    1
    13   114   116   ar
    14    69    68    1
    15    69    78   am
    16   110   109    1
    17   110   111    1
    18    75    74    2
    19    75    77    1
    20   127   125   ar
    21   127   129   ar
    22    39    36    1
    23    68    67    1
    24   125   124   ar
    25   117   118   ar
    26    83    82    1
    27   116   118   ar
    28    82    79    1
    29    41    35    1
    30   121   120    1
    31   121   122    2
    32   130   129    1
    33   120   119    1
    34   120   123    1
    35    79    78    1
    36    79    80    1
    37   111   112    2
    38   129   128   ar
    39   124   123    1
    40   124   126   ar
    41    67    60   am
    42    36    35    1
    43    36    37    1
    44    61    60    2
    45    35    29   am
    46   128   126   ar
    47    60    59    1
    48    80    84   am
    49    80    81    2
    50    84    85    1
    51    38    37    2
    52    87    86    2
    53    29    28    1
    54    29    30    2
    55    28    27    1
    56    28    31    1
    57    33    32    1
    58    58    59    1
    59    86    85    1
    60    86    89   am
    61    59    62    1
    62    85    88    1
    63    45    44    2
    64    47    46    1
    65    43    42    1
    66    43    44    1
    67    43    46    1
    68    89    90    1
    69    44    48   am
    70    31    32    1
    71    90    93    1
    72    90    91    1
    73    32    34    1
    74    62    63    1
    75    63    64    1
    76    93    94    1
    77    96    94   ar
    78    94    95   ar
    79    91    92    2
    80    48    49    1
    81    50    49    1
    82    50    51    2
    83    66    64   am
    84    64    65    2
    85    49    52    1
    86    26    25    1
    87    55    53   ar
    88    55    57   ar
    89    52    53    1
    90    53    54   ar
    91    25    23   ar
    92    25    24   ar
    93    23    21   ar
    94    57    56   ar
    95   107   106    2
    96    97    98    1
    97    24    22   ar
    98    21    20   ar
    99    54    56   ar
   100    98    99    1
   101   106   105    1
   102   106   108   am
   103    99   100    2
   104   105   102    1
   105    14    13   ar
   106    14    12   ar
   107    13    11   ar
   108    22    20   ar
   109    20    19    1
   110    15    16    1
   111    16    19    1
   112    16    17    1
   113    12    10   ar
   114    11     8   ar
   115   102   103    1
   116   102   101    1
   117    18    17    2
   118   103   104    2
   119    10     8   ar
   120    10     9   ar
   121     8     6   ar
   122     4     3    2
   123     9     7   ar
   124     6     5    1
   125     6     7   ar
   126     3     2    1
   127     2     5    1
   128     2     1    1
