@<TRIPOS>MOLECULE
tmp/3c0aA01.pdb
 101 99 0 0 0
SMALL
GASTEIGER

@<TRIPOS>ATOM
      1  N        -29.2600   14.6420   38.1830 N.3    56  GLU56      -0.1245
      2  CA       -28.8210   15.0700   36.8600 C.3    56  GLU56       0.1567
      3  C        -29.5930   16.2920   36.3670 C.2    56  GLU56       0.2260
      4  O        -29.1890   16.9400   35.4010 O.2    56  GLU56      -0.2867
      5  CB       -28.9520   13.9240   35.8550 C.3    56  GLU56       0.0388
      6  CG       -28.2910   14.1970   34.5140 C.3    56  GLU56       0.1160
      7  CD       -29.2340   13.9850   33.3460 C.2    56  GLU56       0.3649
      8  OE1      -30.4600   14.1240   33.5370 O.co2  56  GLU56      -0.2457
      9  OE2      -28.7490   13.6780   32.2360 O.co2  56  GLU56      -0.2457
     10  N        -24.8650    8.2840   35.3950 N.3    77  ILE77      -0.1231
     11  CA       -25.5430    8.5920   34.1130 C.3    77  ILE77       0.1692
     12  C        -24.6430    9.1490   33.0000 C.2    77  ILE77       0.2592
     13  O        -24.7030    8.6990   31.8600 O.2    77  ILE77      -0.2718
     14  CB       -26.6870    9.6390   34.3400 C.3    77  ILE77       0.0266
     15  CG1      -28.0500    8.9990   34.5490 C.3    77  ILE77       0.0019
     16  CG2      -26.8450   10.5260   33.1660 C.3    77  ILE77       0.0020
     17  CD1      -29.1470   10.1060   34.6590 C.3    77  ILE77       0.0001
     18  N        -23.8320   10.1490   33.3230 N.am   78  TRP78      -0.1976
     19  CA       -23.0980   10.8610   32.2650 C.3    78  TRP78       0.1640
     20  C        -21.6410   10.4770   32.1050 C.2    78  TRP78       0.2290
     21  O        -20.9510   11.0830   31.2840 O.2    78  TRP78      -0.2864
     22  CB       -23.2030   12.3720   32.4320 C.3    78  TRP78       0.0576
     23  CG       -24.4470   12.9460   31.9050 C.ar   78  TRP78       0.0006
     24  CD1      -25.6030   13.1150   32.5780 C.ar   78  TRP78       0.0946
     25  CD2      -24.6570   13.4730   30.5860 C.ar   78  TRP78       0.0152
     26  NE1      -26.5480   13.6970   31.7570 N.ar   78  TRP78      -0.2442
     27  CE2      -25.9840   13.9450   30.5330 C.ar   78  TRP78       0.0810
     28  CE3      -23.8490   13.5970   29.4490 C.ar   78  TRP78       0.0012
     29  CZ2      -26.5390   14.5250   29.3760 C.ar   78  TRP78       0.0191
     30  CZ3      -24.3960   14.1830   28.2910 C.ar   78  TRP78       0.0001
     31  CH2      -25.7370   14.6280   28.2640 C.ar   78  TRP78       0.0015
     32  N        -19.9040    7.9790   30.8100 N.3    80  GLU80      -0.1231
     33  CA       -19.3740    7.3090   29.6210 C.3    80  GLU80       0.1699
     34  C        -18.5940    8.2790   28.7340 C.2    80  GLU80       0.2592
     35  O        -17.4470    8.0110   28.3920 O.2    80  GLU80      -0.2718
     36  CB       -20.4960    6.6450   28.7980 C.3    80  GLU80       0.0402
     37  CG       -21.1660    5.3810   29.4100 C.3    80  GLU80       0.1161
     38  CD       -22.4530    4.9420   28.6540 C.2    80  GLU80       0.3649
     39  OE1      -23.4660    5.6830   28.6890 O.co2  80  GLU80      -0.2457
     40  OE2      -22.4540    3.8490   28.0300 O.co2  80  GLU80      -0.2457
     41  N        -19.2090    9.4090   28.3900 N.am   81  TRP81      -0.1976
     42  CA       -18.5980   10.3740   27.4680 C.3    81  TRP81       0.1640
     43  C        -17.4710   11.1480   28.1140 C.2    81  TRP81       0.2290
     44  O        -16.6760   11.7720   27.4120 O.2    81  TRP81      -0.2864
     45  CB       -19.6410   11.3270   26.8770 C.3    81  TRP81       0.0576
     46  CG       -20.6060   10.6320   25.9680 C.ar   81  TRP81       0.0006
     47  CD1      -21.5940    9.7780   26.3390 C.ar   81  TRP81       0.0946
     48  CD2      -20.6630   10.7140   24.5360 C.ar   81  TRP81       0.0152
     49  NE1      -22.2710    9.3120   25.2390 N.ar   81  TRP81      -0.2442
     50  CE2      -21.7250    9.8710   24.1140 C.ar   81  TRP81       0.0810
     51  CE3      -19.9230   11.4110   23.5700 C.ar   81  TRP81       0.0012
     52  CZ2      -22.0780    9.7130   22.7570 C.ar   81  TRP81       0.0191
     53  CZ3      -20.2660   11.2540   22.2210 C.ar   81  TRP81       0.0001
     54  CH2      -21.3370   10.4090   21.8280 C.ar   81  TRP81       0.0015
     55  N        -22.0300   15.0450   21.3620 N.3   171  LEU171     -0.1245
     56  CA       -23.4330   14.6380   21.2830 C.3   171  LEU171      0.1561
     57  C        -24.4190   15.8360   21.1200 C.2   171  LEU171      0.2260
     58  O        -24.7560   16.4990   22.0970 O.2   171  LEU171     -0.2867
     59  CB       -23.7700   13.7040   22.4820 C.3   171  LEU171      0.0270
     60  CG       -25.1920   13.0990   22.6640 C.3   171  LEU171      0.0019
     61  CD1      -25.8910   12.5770   21.3550 C.3   171  LEU171      0.0001
     62  CD2      -25.1940   11.9960   23.7620 C.3   171  LEU171      0.0001
     63  N        -34.9700    7.5960   22.3860 N.3   197  ASP197     -0.1239
     64  CA       -35.1400    6.1090   22.5950 C.3   197  ASP197      0.1674
     65  C        -36.2980    5.9730   23.4950 C.2   197  ASP197      0.2266
     66  O        -36.2220    6.4180   24.6400 O.2   197  ASP197     -0.2867
     67  CB       -33.9390    5.3520   23.2190 C.3   197  ASP197      0.1410
     68  CG       -34.2540    3.7980   23.4930 C.2   197  ASP197      0.3668
     69  OD1      -35.3890    3.4440   23.8890 O.co2 197  ASP197     -0.2456
     70  OD2      -33.3940    2.9010   23.3140 O.co2 197  ASP197     -0.2456
     71  N        -35.3200    3.0490   26.7080 N.3   200  LEU200     -0.1231
     72  CA       -34.3830    3.4930   27.6990 C.3   200  LEU200      0.1693
     73  C        -34.5020    4.9700   28.1000 C.2   200  LEU200      0.2592
     74  O        -34.6270    5.2710   29.2930 O.2   200  LEU200     -0.2718
     75  CB       -32.9660    3.0950   27.3060 C.3   200  LEU200      0.0284
     76  CG       -32.6000    1.6300   27.0160 C.3   200  LEU200      0.0019
     77  CD1      -31.0790    1.5470   26.7400 C.3   200  LEU200      0.0001
     78  CD2      -33.0040    0.6030   28.1440 C.3   200  LEU200      0.0001
     79  N        -34.4840    5.9100   27.1370 N.am  201  GLY201     -0.1957
     80  CA       -34.3980    7.3380   27.5050 C.3   201  GLY201      0.1869
     81  C        -35.6760    8.0320   27.8390 C.2   201  GLY201      0.2309
     82  O        -35.7290    8.8620   28.7960 O.2   201  GLY201     -0.2863
     83  N        -37.1410    8.5110   31.5430 N.3   204  PHE204     -0.1227
     84  CA       -36.3670    9.5500   32.2800 C.3   204  PHE204      0.1736
     85  C        -36.6920   10.9630   31.8020 C.2   204  PHE204      0.2595
     86  O        -37.0120   11.8320   32.6270 O.2   204  PHE204     -0.2718
     87  CB       -34.8500    9.4460   32.0430 C.3   204  PHE204      0.0547
     88  CG       -34.1980    8.1970   32.5810 C.ar  204  PHE204     -0.0202
     89  CD1      -34.5280    6.9370   32.0800 C.ar  204  PHE204     -0.0042
     90  CD2      -33.1960    8.2970   33.5610 C.ar  204  PHE204     -0.0042
     91  CE1      -33.8860    5.7640   32.5760 C.ar  204  PHE204     -0.0003
     92  CE2      -32.5480    7.1510   34.0530 C.ar  204  PHE204     -0.0003
     93  CZ       -32.8910    5.8760   33.5520 C.ar  204  PHE204     -0.0000
     94  N        -36.5510   11.1720   30.4740 N.am  205  ASN205     -0.1974
     95  CA       -36.8610   12.4610   29.7740 C.3   205  ASN205      0.1688
     96  C        -38.1200   13.0830   30.3180 C.2   205  ASN205      0.2292
     97  O        -38.1330   14.2650   30.6480 O.2   205  ASN205     -0.2864
     98  CB       -36.9800   12.3020   28.2380 C.3   205  ASN205      0.1181
     99  CG       -35.7270   11.7020   27.6020 C.2   205  ASN205      0.2629
    100  OD1      -35.7420   11.1830   26.4560 O.2   205  ASN205     -0.2716
    101  ND2      -34.6350   11.7400   28.3380 N.am  205  ASN205     -0.0877
@<TRIPOS>BOND
     1    57    56    1
     2    57    58    2
     3    56    55    1
     4    56    59    1
     5    61    60    1
     6    54    53   ar
     7    54    52   ar
     8    53    51   ar
     9    63    64    1
    10    59    60    1
    11    64    67    1
    12    64    65    1
    13    60    62    1
    14    52    50   ar
    15    67    68    1
    16    70    68   ar
    17    68    69   ar
    18    65    66    2
    19    51    48   ar
    20    50    48   ar
    21    50    49   ar
    22    48    46   ar
    23    49    47   ar
    24    46    47   ar
    25    46    45    1
    26   100    99    2
    27    71    72    1
    28    77    76    1
    29    45    42    1
    30    76    75    1
    31    76    78    1
    32    79    80    1
    33    79    73   am
    34    75    72    1
    35    44    43    2
    36    42    43    1
    37    42    41    1
    38    80    81    1
    39    99    98    1
    40    99   101   am
    41    72    73    1
    42    81    82    2
    43    40    38   ar
    44    73    74    2
    45    98    95    1
    46    31    30   ar
    47    31    29   ar
    48    30    28   ar
    49    41    34   am
    50    35    34    2
    51    38    39   ar
    52    38    37    1
    53    34    33    1
    54    36    37    1
    55    36    33    1
    56    29    27   ar
    57    28    25   ar
    58    33    32    1
    59    95    96    1
    60    95    94    1
    61    96    97    2
    62    94    85   am
    63    27    25   ar
    64    27    26   ar
    65    25    23   ar
    66    21    20    2
    67    83    84    1
    68    26    24   ar
    69    85    84    1
    70    85    86    2
    71    13    12    2
    72    23    22    1
    73    23    24   ar
    74    87    84    1
    75    87    88    1
    76    89    91   ar
    77    89    88   ar
    78    20    19    1
    79     9     7   ar
    80    19    22    1
    81    19    18    1
    82    91    93   ar
    83    88    90   ar
    84    12    18   am
    85    12    11    1
    86    16    14    1
    87     7     8   ar
    88     7     6    1
    89    93    92   ar
    90    90    92   ar
    91    11    14    1
    92    11    10    1
    93    14    15    1
    94     6     5    1
    95    15    17    1
    96     4     3    2
    97     5     2    1
    98     3     2    1
    99     2     1    1
