@<TRIPOS>MOLECULE
tmp/3c0zB00.pdb
 116 113 0 0 0
SMALL
GASTEIGER

@<TRIPOS>ATOM
      1  N          8.8760    1.6220  -23.3510 N.3    93  ASP93      -0.1239
      2  CA         7.8200    1.0740  -22.4920 C.3    93  ASP93       0.1674
      3  C          6.6140    1.9780  -22.5340 C.2    93  ASP93       0.2266
      4  O          5.4630    1.5430  -22.4780 O.2    93  ASP93      -0.2867
      5  CB         8.3410    0.9950  -21.0440 C.3    93  ASP93       0.1410
      6  CG         9.4460   -0.0330  -20.8770 C.2    93  ASP93       0.3668
      7  OD1        9.1160   -1.2430  -20.8030 O.co2  93  ASP93      -0.2456
      8  OD2       10.6350    0.3680  -20.8380 O.co2  93  ASP93      -0.2456
      9  N         -1.1300    4.8610  -15.1730 N.3   134  PRO134     -0.2116
     10  CA        -0.7220    5.2100  -13.8190 C.3   134  PRO134      0.1372
     11  C         -0.0480    6.5880  -13.8330 C.2   134  PRO134      0.2244
     12  O          0.1020    7.1900  -14.9330 O.2   134  PRO134     -0.2868
     13  CB         0.2480    4.0790  -13.4570 C.3   134  PRO134      0.0268
     14  CG         0.8170    3.6450  -14.7920 C.3   134  PRO134      0.0207
     15  CD        -0.3380    3.7300  -15.7220 C.3   134  PRO134      0.0892
     16  N          2.5920    7.7520  -10.9570 N.3   136  HIS136     -0.1226
     17  CA         3.6070    8.0820   -9.9580 C.3   136  HIS136      0.1752
     18  C          5.0540    8.2550  -10.4130 C.2   136  HIS136      0.2596
     19  O          5.8480    8.9260   -9.7540 O.2   136  HIS136     -0.2718
     20  CB         3.4670    7.1930   -8.6850 C.3   136  HIS136      0.0759
     21  CG         4.0570    5.8090   -8.8010 C.ar  136  HIS136      0.0818
     22  ND1        4.5040    5.1000   -7.7000 N.ar  136  HIS136     -0.2268
     23  CD2        4.2590    4.9940   -9.8700 C.ar  136  HIS136      0.1154
     24  CE1        4.9830    3.9280   -8.0880 C.ar  136  HIS136      0.1986
     25  NE2        4.8400    3.8360   -9.3960 N.ar  136  HIS136     -0.2212
     26  N          5.4010    7.7100  -11.5670 N.am  137  HIS137     -0.1975
     27  CA         6.6970    8.0240  -12.1150 C.3   137  HIS137      0.1656
     28  C          6.7520    9.3410  -12.9320 C.2   137  HIS137      0.2291
     29  O          7.8150    9.7710  -13.2850 O.2   137  HIS137     -0.2864
     30  CB         7.2140    6.8730  -12.9810 C.3   137  HIS137      0.0771
     31  CG         7.3080    5.5590  -12.2860 C.ar  137  HIS137      0.0820
     32  ND1        8.2160    5.3190  -11.2820 N.ar  137  HIS137     -0.2267
     33  CD2        6.6590    4.3890  -12.4980 C.ar  137  HIS137      0.1154
     34  CE1        8.0940    4.0630  -10.8800 C.ar  137  HIS137      0.1986
     35  NE2        7.1570    3.4800  -11.6000 N.ar  137  HIS137     -0.2212
     36  N          8.0670    5.2630  -17.3980 N.3   145  GLY145     -0.1210
     37  CA         7.5040    4.1630  -16.6120 C.3   145  GLY145      0.1956
     38  C          5.9980    4.0390  -16.6980 C.2   145  GLY145      0.2612
     39  O          5.3310    3.7220  -15.6830 O.2   145  GLY145     -0.2717
     40  N          5.4710    4.1990  -17.9260 N.am  146  PHE146     -0.1962
     41  CA         4.0460    4.1020  -18.2670 C.3   146  PHE146      0.1771
     42  C          3.1610    5.2780  -17.8120 C.2   146  PHE146      0.2619
     43  O          1.9620    5.2680  -18.0670 O.2   146  PHE146     -0.2715
     44  CB         3.3820    2.7840  -17.7850 C.3   146  PHE146      0.0574
     45  CG         4.1490    1.5090  -18.1050 C.ar  146  PHE146     -0.0200
     46  CD1        4.7960    1.3240  -19.3070 C.ar  146  PHE146     -0.0042
     47  CD2        4.1370    0.4500  -17.2000 C.ar  146  PHE146     -0.0042
     48  CE1        5.4660    0.1110  -19.5840 C.ar  146  PHE146     -0.0003
     49  CE2        4.8120   -0.7560  -17.4710 C.ar  146  PHE146     -0.0003
     50  CZ         5.4780   -0.9190  -18.6540 C.ar  146  PHE146     -0.0000
     51  N          3.7410    6.2700  -17.1350 N.am  147  CYS147     -0.1968
     52  CA         3.0290    7.4400  -16.6260 C.3   147  CYS147      0.1712
     53  C          3.2360    8.6760  -17.4780 C.2   147  CYS147      0.2296
     54  O          4.3480    8.9250  -17.9270 O.2   147  CYS147     -0.2864
     55  CB         3.6060    7.7500  -15.2240 C.3   147  CYS147      0.0983
     56  SG         3.5200    6.3080  -14.0570 S.3   147  CYS147     -0.0798
     57  N          3.1810    0.6720   -4.2530 N.3   174  ASP174     -0.1239
     58  CA         3.5150    0.0670   -5.5250 C.3   174  ASP174      0.1674
     59  C          4.9600   -0.3430   -5.3190 C.2   174  ASP174      0.2266
     60  O          5.7610    0.3540   -4.6480 O.2   174  ASP174     -0.2867
     61  CB         3.3350    1.1720   -6.5980 C.3   174  ASP174      0.1410
     62  CG         3.6310    0.6990   -8.0130 C.2   174  ASP174      0.3668
     63  OD1        4.7930    0.5950   -8.3110 O.co2 174  ASP174     -0.2456
     64  OD2        2.6990    0.4700   -8.8020 O.co2 174  ASP174     -0.2456
     65  N          7.4520   -0.1510   -7.0950 N.3   176  HIS176     -0.1241
     66  CA         8.4550    0.8040   -7.5530 C.3   176  HIS176      0.1621
     67  C          8.3070    2.1140   -6.7580 C.2   176  HIS176      0.2264
     68  O          7.2290    2.4290   -6.2560 O.2   176  HIS176     -0.2867
     69  CB         8.3380    1.0870   -9.0640 C.3   176  HIS176      0.0745
     70  CG         8.2240   -0.1500   -9.9140 C.ar  176  HIS176      0.0817
     71  ND1        7.0020   -0.7330  -10.2310 N.ar  176  HIS176     -0.2268
     72  CD2        9.1710   -0.9070  -10.5140 C.ar  176  HIS176      0.1154
     73  CE1        7.2170   -1.8120  -10.9750 C.ar  176  HIS176      0.1986
     74  NE2        8.5190   -1.9400  -11.1570 N.ar  176  HIS176     -0.2212
     75  N         13.8020   -0.7190  -11.0040 N.3   205  PHE205     -0.1241
     76  CA        13.1960    0.4620  -11.6120 C.3   205  PHE205      0.1605
     77  C         12.4080    1.2750  -10.5640 C.2   205  PHE205      0.2264
     78  O         11.6500    0.6820   -9.7860 O.2   205  PHE205     -0.2867
     79  CB        12.2640    0.0820  -12.7620 C.3   205  PHE205      0.0534
     80  CG        11.7680    1.2880  -13.5490 C.ar  205  PHE205     -0.0203
     81  CD1       10.5520    1.9140  -13.2130 C.ar  205  PHE205     -0.0042
     82  CD2       12.5260    1.8040  -14.6170 C.ar  205  PHE205     -0.0042
     83  CE1       10.0900    3.0520  -13.9160 C.ar  205  PHE205     -0.0003
     84  CE2       12.0650    2.9400  -15.3410 C.ar  205  PHE205     -0.0003
     85  CZ        10.8360    3.5540  -14.9810 C.ar  205  PHE205     -0.0000
     86  N          1.8380   -4.5080   -7.9370 N.3   268  ASP268     -0.1239
     87  CA         2.9760   -5.2680   -8.4500 C.3   268  ASP268      0.1674
     88  C          3.9220   -5.8410   -7.4010 C.2   268  ASP268      0.2266
     89  O          4.9620   -6.4720   -7.7540 O.2   268  ASP268     -0.2867
     90  CB         3.7460   -4.4430   -9.4530 C.3   268  ASP268      0.1410
     91  CG         3.7550   -2.9550   -9.1340 C.2   268  ASP268      0.3668
     92  OD1        3.3850   -2.5420   -7.9830 O.co2 268  ASP268     -0.2456
     93  OD2        4.1890   -2.2010  -10.0520 O.co2 268  ASP268     -0.2456
     94  N         11.6480   -9.4760  -13.1090 N.3   276  PRO276     -0.2102
     95  CA        11.5830   -8.2850  -12.3090 C.3   276  PRO276      0.1504
     96  C         10.3830   -7.4550  -12.7330 C.2   276  PRO276      0.2575
     97  O         10.5500   -6.3070  -13.1460 O.2   276  PRO276     -0.2718
     98  CB        12.8610   -7.5560  -12.7350 C.3   276  PRO276      0.0282
     99  CG        12.9300   -7.8660  -14.2880 C.3   276  PRO276      0.0208
    100  CD        12.0480   -9.1340  -14.4930 C.3   276  PRO276      0.0893
    101  N          9.2000   -8.0500  -12.6830 N.am  277  LEU277     -0.1980
    102  CA         7.9460   -7.2700  -12.6680 C.3   277  LEU277      0.1596
    103  C          7.6750   -6.7980  -11.2220 C.2   277  LEU277      0.2287
    104  O          6.7260   -6.0410  -10.9580 O.2   277  LEU277     -0.2864
    105  CB         6.7680   -8.1140  -13.1740 C.3   277  LEU277      0.0297
    106  CG         6.8970   -8.6630  -14.5890 C.3   277  LEU277      0.0022
    107  CD1        5.7840   -9.6390  -14.9110 C.3   277  LEU277      0.0001
    108  CD2        6.9170   -7.5550  -15.6260 C.3   277  LEU277      0.0001
    109  N          0.5680    0.6800  -10.7630 N.3   308  GLY308     -0.1210
    110  CA         1.0050   -0.4870  -11.5340 C.3   308  GLY308      0.1956
    111  C          0.4870   -1.8350  -11.0320 C.2   308  GLY308      0.2612
    112  O         -0.4010   -1.8970  -10.1990 O.2   308  GLY308     -0.2717
    113  N          1.0800   -2.9210  -11.5170 N.am  309  GLY309     -0.1956
    114  CA         0.5390   -4.2560  -11.2960 C.3   309  GLY309      0.1869
    115  C         -0.1710   -4.7580  -12.5440 C.2   309  GLY309      0.2309
    116  O         -1.1370   -4.1640  -13.0140 O.2   309  GLY309     -0.2863
@<TRIPOS>BOND
     1     1     2    1
     2     3     2    1
     3     3     4    2
     4     2     5    1
     5     5     6    1
     6     6     8   ar
     7     6     7   ar
     8    48    46   ar
     9    48    50   ar
    10    46    45   ar
    11    50    49   ar
    12    41    40    1
    13    41    42    1
    14    41    44    1
    15    45    44    1
    16    45    47   ar
    17    43    42    2
    18    54    53    2
    19    40    38   am
    20    42    51   am
    21    53    52    1
    22    49    47   ar
    23    36    37    1
    24    51    52    1
    25    38    37    1
    26    38    39    2
    27    52    55    1
    28    15     9    1
    29    15    14    1
    30   108   106    1
    31    84    85   ar
    32    84    82   ar
    33    55    56    1
    34     9    10    1
    35    85    83   ar
    36    12    11    2
    37   107   106    1
    38    14    13    1
    39    82    80   ar
    40   106   105    1
    41   100    99    1
    42   100    94    1
    43    99    98    1
    44    83    81   ar
    45    11    10    1
    46    10    13    1
    47    80    81   ar
    48    80    79    1
    49    29    28    2
    50   105   102    1
    51    97    96    2
    52    94    95    1
    53   116   115    2
    54    30    31    1
    55    30    27    1
    56    28    27    1
    57    79    76    1
    58    98    95    1
    59    96   101   am
    60    96    95    1
    61   101   102    1
    62   102   103    1
    63   115   114    1
    64    33    31   ar
    65    33    35   ar
    66    31    32   ar
    67    27    26    1
    68    76    75    1
    69    76    77    1
    70    35    34   ar
    71    26    18   am
    72   110   111    1
    73   110   109    1
    74   113   114    1
    75   113   111   am
    76    32    34   ar
    77   103   104    2
    78    74    73   ar
    79    74    72   ar
    80   111   112    2
    81    73    71   ar
    82    16    17    1
    83    77    78    2
    84    72    70   ar
    85    18    17    1
    86    18    19    2
    87    71    70   ar
    88    93    91   ar
    89    17    20    1
    90    70    69    1
    91    23    25   ar
    92    23    21   ar
    93    90    91    1
    94    90    87    1
    95    25    24   ar
    96    91    92   ar
    97    69    66    1
    98    64    62   ar
    99    21    20    1
   100    21    22   ar
   101    87    86    1
   102    87    88    1
   103    63    62   ar
   104    24    22   ar
   105    62    61    1
   106    89    88    2
   107    66    65    1
   108    66    67    1
   109    67    68    2
   110    61    58    1
   111    58    59    1
   112    58    57    1
   113    59    60    2
