@<TRIPOS>MOLECULE
tmp/3c0zA00.pdb
 103 99 0 0 0
SMALL
GASTEIGER

@<TRIPOS>ATOM
      1  N        -32.9280  -28.1720  -28.0090 N.3   109  ASP109     -0.1239
      2  CA       -34.1130  -27.8540  -27.2190 C.3   109  ASP109      0.1674
      3  C        -34.4770  -26.3970  -27.3320 C.2   109  ASP109      0.2266
      4  O        -35.6410  -26.0100  -27.1950 O.2   109  ASP109     -0.2867
      5  CB       -33.8170  -28.1100  -25.7220 C.3   109  ASP109      0.1410
      6  CG       -33.3270  -29.5310  -25.4360 C.2   109  ASP109      0.3668
      7  OD1      -34.0380  -30.4810  -25.8180 O.co2 109  ASP109     -0.2456
      8  OD2      -32.2420  -29.6790  -24.8100 O.co2 109  ASP109     -0.2456
      9  N        -37.9810  -19.0870  -20.0150 N.3   150  PRO150     -0.2116
     10  CA       -37.3930  -19.1710  -18.6750 C.3   150  PRO150      0.1372
     11  C        -35.9840  -18.6220  -18.6240 C.2   150  PRO150      0.2244
     12  O        -35.4510  -18.2480  -19.6730 O.2   150  PRO150     -0.2868
     13  CB       -37.4610  -20.6720  -18.3620 C.3   150  PRO150      0.0268
     14  CG       -37.3970  -21.3330  -19.6990 C.3   150  PRO150      0.0207
     15  CD       -38.1430  -20.4150  -20.6360 C.3   150  PRO150      0.0892
     16  N        -33.2660  -19.5190  -15.7270 N.3   152  HIS152     -0.1226
     17  CA       -32.2960  -19.9730  -14.7320 C.3   152  HIS152      0.1752
     18  C        -31.1100  -20.8180  -15.2050 C.2   152  HIS152      0.2596
     19  O        -30.0950  -20.8860  -14.5170 O.2   152  HIS152     -0.2718
     20  CB       -33.0120  -20.5260  -13.4740 C.3   152  HIS152      0.0759
     21  CG       -33.5360  -21.9150  -13.6250 C.ar  152  HIS152      0.0818
     22  ND1      -33.4720  -22.8340  -12.6070 N.ar  152  HIS152     -0.2268
     23  CD2      -34.1440  -22.5430  -14.6650 C.ar  152  HIS152      0.1154
     24  CE1      -34.0060  -23.9740  -13.0140 C.ar  152  HIS152      0.1986
     25  NE2      -34.4050  -23.8300  -14.2640 N.ar  152  HIS152     -0.2212
     26  N        -31.1620  -21.3400  -16.4380 N.am  153  HIS153     -0.1975
     27  CA       -30.0310  -22.0390  -16.9950 C.3   153  HIS153      0.1656
     28  C        -29.0590  -21.1530  -17.7790 C.2   153  HIS153      0.2291
     29  O        -27.9630  -21.5890  -18.0870 O.2   153  HIS153     -0.2864
     30  CB       -30.5100  -23.1630  -17.9510 C.3   153  HIS153      0.0771
     31  CG       -31.3380  -24.1960  -17.2660 C.ar  153  HIS153      0.0820
     32  ND1      -30.8720  -24.9120  -16.1800 N.ar  153  HIS153     -0.2267
     33  CD2      -32.5880  -24.6580  -17.5210 C.ar  153  HIS153      0.1154
     34  CE1      -31.8060  -25.7740  -15.8010 C.ar  153  HIS153      0.1986
     35  NE2      -32.8550  -25.6370  -16.5930 N.ar  153  HIS153     -0.2212
     36  N        -31.0780  -24.9140  -22.2730 N.3   161  GLY161     -0.1210
     37  CA       -32.2040  -25.3130  -21.4670 C.3   161  GLY161      0.1956
     38  C        -33.4220  -24.4360  -21.5450 C.2   161  GLY161      0.2611
     39  O        -34.1110  -24.2340  -20.5360 O.2   161  GLY161     -0.2717
     40  N        -33.7370  -23.9560  -22.7560 N.am  162  PHE162     -0.1976
     41  CA       -34.9060  -23.1180  -22.9610 C.3   162  PHE162      0.1639
     42  C        -34.7270  -21.6480  -22.5700 C.2   162  PHE162      0.2290
     43  O        -35.6440  -20.8710  -22.8190 O.2   162  PHE162     -0.2864
     44  CB       -36.1960  -23.6670  -22.3160 C.3   162  PHE162      0.0560
     45  CG       -36.5430  -25.1110  -22.6840 C.ar  162  PHE162     -0.0200
     46  CD1      -36.1920  -25.6630  -23.9100 C.ar  162  PHE162     -0.0042
     47  CD2      -37.2830  -25.9100  -21.7740 C.ar  162  PHE162     -0.0042
     48  CE1      -36.5290  -27.0300  -24.2260 C.ar  162  PHE162     -0.0003
     49  CE2      -37.6640  -27.2680  -22.1000 C.ar  162  PHE162     -0.0003
     50  CZ       -37.2590  -27.8120  -23.3210 C.ar  162  PHE162     -0.0000
     51  N        -37.7560  -24.8630   -9.0190 N.3   190  ASP190     -0.1239
     52  CA       -37.7810  -25.5930  -10.2540 C.3   190  ASP190      0.1674
     53  C        -37.0230  -26.9620  -10.0440 C.2   190  ASP190      0.2266
     54  O        -36.0260  -27.0060   -9.3440 O.2   190  ASP190     -0.2867
     55  CB       -37.0810  -24.7470  -11.3120 C.3   190  ASP190      0.1410
     56  CG       -37.2190  -25.3280  -12.6920 C.2   190  ASP190      0.3668
     57  OD1      -36.5220  -26.3130  -12.9770 O.co2 190  ASP190     -0.2456
     58  OD2      -38.0050  -24.8140  -13.5140 O.co2 190  ASP190     -0.2456
     59  N        -35.0690  -28.5370  -11.8650 N.3   192  HIS192     -0.1241
     60  CA       -33.7150  -28.5330  -12.4350 C.3   192  HIS192      0.1621
     61  C        -32.8500  -27.5970  -11.6140 C.2   192  HIS192      0.2264
     62  O        -33.3390  -26.5810  -11.0850 O.2   192  HIS192     -0.2867
     63  CB       -33.7300  -28.0740  -13.9040 C.3   192  HIS192      0.0745
     64  CG       -34.5510  -28.9580  -14.7860 C.ar  192  HIS192      0.0817
     65  ND1      -35.8170  -28.6130  -15.2210 N.ar  192  HIS192     -0.2268
     66  CD2      -34.2950  -30.1970  -15.2860 C.ar  192  HIS192      0.1154
     67  CE1      -36.3110  -29.6200  -15.9330 C.ar  192  HIS192      0.1986
     68  NE2      -35.4110  -30.5940  -15.9770 N.ar  192  HIS192     -0.2212
     69  N        -30.7350  -33.3610  -15.9710 N.3   221  PHE221     -0.1241
     70  CA       -30.4270  -32.0880  -16.5820 C.3   221  PHE221      0.1605
     71  C        -30.4470  -30.9870  -15.5030 C.2   221  PHE221      0.2264
     72  O        -31.3440  -30.9290  -14.6780 O.2   221  PHE221     -0.2867
     73  CB       -31.3550  -31.7800  -17.7810 C.3   221  PHE221      0.0534
     74  CG       -31.0040  -30.5270  -18.5060 C.ar  221  PHE221     -0.0203
     75  CD1      -31.4780  -29.2900  -18.0540 C.ar  221  PHE221     -0.0042
     76  CD2      -30.1730  -30.5670  -19.6240 C.ar  221  PHE221     -0.0042
     77  CE1      -31.1120  -28.0890  -18.7050 C.ar  221  PHE221     -0.0003
     78  CE2      -29.8020  -29.3790  -20.2820 C.ar  221  PHE221     -0.0003
     79  CZ       -30.2780  -28.1290  -19.8160 C.ar  221  PHE221     -0.0000
     80  N        -42.1890  -27.7550  -12.5750 N.3   284  ASP284     -0.1239
     81  CA       -41.9290  -29.0720  -13.1220 C.3   284  ASP284      0.1674
     82  C        -41.6550  -30.1960  -12.0960 C.2   284  ASP284      0.2266
     83  O        -41.5170  -31.3730  -12.4660 O.2   284  ASP284     -0.2867
     84  CB       -40.8350  -29.0130  -14.2020 C.3   284  ASP284      0.1410
     85  CG       -39.6620  -28.0690  -13.8510 C.2   284  ASP284      0.3668
     86  OD1      -39.5830  -27.5080  -12.7360 O.co2 284  ASP284     -0.2456
     87  OD2      -38.7860  -27.9440  -14.7220 O.co2 284  ASP284     -0.2456
     88  N        -38.9220  -35.4920  -17.6240 N.3   293  LEU293     -0.1245
     89  CA       -39.2240  -34.0780  -17.4590 C.3   293  LEU293      0.1561
     90  C        -39.3160  -33.6120  -15.9870 C.2   293  LEU293      0.2260
     91  O        -39.6710  -32.4450  -15.7270 O.2   293  LEU293     -0.2867
     92  CB       -40.5580  -33.7770  -18.1580 C.3   293  LEU293      0.0270
     93  CG       -40.5750  -33.9630  -19.6690 C.3   293  LEU293      0.0019
     94  CD1      -41.9910  -34.0840  -20.0900 C.3   293  LEU293      0.0001
     95  CD2      -39.8590  -32.7990  -20.4090 C.3   293  LEU293      0.0001
     96  N        -39.5570  -23.2050  -15.2590 N.3   324  GLY324     -0.1210
     97  CA       -39.9610  -24.3840  -16.0300 C.3   324  GLY324      0.1956
     98  C        -41.3140  -24.9520  -15.6190 C.2   324  GLY324      0.2612
     99  O        -42.0830  -24.3310  -14.8940 O.2   324  GLY324     -0.2717
    100  N        -41.6240  -26.1480  -16.0650 N.am  325  GLY325     -0.1956
    101  CA       -42.9340  -26.7090  -15.7260 C.3   325  GLY325      0.1869
    102  C        -43.8180  -26.4750  -16.9360 C.2   325  GLY325      0.2309
    103  O        -43.9810  -25.3310  -17.3720 O.2   325  GLY325     -0.2863
@<TRIPOS>BOND
     1     1     2    1
     2     3     2    1
     3     3     4    2
     4     2     5    1
     5     7     6   ar
     6     5     6    1
     7     6     8   ar
     8    48    46   ar
     9    48    50   ar
    10    46    45   ar
    11    50    49   ar
    12    41    40    1
    13    41    42    1
    14    41    44    1
    15    43    42    2
    16    40    38   am
    17    45    44    1
    18    45    47   ar
    19    36    37    1
    20    49    47   ar
    21    38    37    1
    22    38    39    2
    23    15     9    1
    24    15    14    1
    25    95    93    1
    26    78    79   ar
    27    78    76   ar
    28    94    93    1
    29     9    10    1
    30    79    77   ar
    31    14    13    1
    32    12    11    2
    33    93    92    1
    34    76    74   ar
    35    77    75   ar
    36    10    11    1
    37    10    13    1
    38    74    75   ar
    39    74    73    1
    40    92    89    1
    41    29    28    2
    42    30    31    1
    43    30    27    1
    44    73    70    1
    45    28    27    1
    46    88    89    1
    47    33    31   ar
    48    33    35   ar
    49    89    90    1
    50   103   102    2
    51    31    32   ar
    52    27    26    1
    53   102   101    1
    54    35    34   ar
    55    70    69    1
    56    70    71    1
    57    26    18   am
    58    32    34   ar
    59   100   101    1
    60   100    98   am
    61    97    98    1
    62    97    96    1
    63    90    91    2
    64    68    67   ar
    65    68    66   ar
    66    67    65   ar
    67    16    17    1
    68    98    99    2
    69    71    72    2
    70    66    64   ar
    71    65    64   ar
    72    18    17    1
    73    18    19    2
    74    64    63    1
    75    17    20    1
    76    87    85   ar
    77    23    25   ar
    78    23    21   ar
    79    25    24   ar
    80    84    85    1
    81    84    81    1
    82    63    60    1
    83    85    86   ar
    84    21    20    1
    85    21    22   ar
    86    58    56   ar
    87    81    80    1
    88    81    82    1
    89    24    22   ar
    90    57    56   ar
    91    56    55    1
    92    83    82    2
    93    60    59    1
    94    60    61    1
    95    61    62    2
    96    55    52    1
    97    52    53    1
    98    52    51    1
    99    53    54    2
