@<TRIPOS>MOLECULE
tmp/3c10A00.pdb
 144 141 0 0 0
SMALL
GASTEIGER

@<TRIPOS>ATOM
      1  N          4.7830   -6.1800   20.0700 N.3    25  SER25      -0.1202
      2  CA         4.5410   -7.5750   19.6960 C.3    25  SER25       0.2020
      3  C          3.0770   -7.8350   19.3590 C.2    25  SER25       0.2618
      4  O          2.7820   -8.4790   18.3480 O.2    25  SER25      -0.2717
      5  CB         5.0430   -8.5350   20.7970 C.3    25  SER25       0.2103
      6  OG         4.2200   -9.6800   20.9410 O.3    25  SER25      -0.2182
      7  N          2.1670   -7.3430   20.1950 N.am   26  ARG26      -0.1979
      8  CA         0.7420   -7.5710   19.9650 C.3    26  ARG26       0.1597
      9  C          0.0310   -6.4340   19.2140 C.2    26  ARG26       0.2287
     10  O         -1.1970   -6.4470   19.0890 O.2    26  ARG26      -0.2864
     11  CB         0.0120   -7.9110   21.2690 C.3    26  ARG26       0.0334
     12  CG         0.3700   -7.0720   22.4680 C.3    26  ARG26       0.0492
     13  CD        -0.3400   -7.6060   23.7060 C.3    26  ARG26       0.2205
     14  NE         0.1080   -6.9480   24.9360 N.pl3  26  ARG26      -0.0865
     15  CZ         0.8320   -7.5120   25.9040 C.cat  26  ARG26       0.5346
     16  NH1        1.2230   -8.7770   25.8200 N.pl3  26  ARG26       0.1354
     17  NH2        1.1670   -6.7980   26.9730 N.pl3  26  ARG26       0.1354
     18  N          0.7970   -4.6350   15.6520 N.3    28  PRO28      -0.2116
     19  CA         1.5560   -4.5160   14.4160 C.3    28  PRO28       0.1372
     20  C          1.5950   -3.1270   13.7790 C.2    28  PRO28       0.2244
     21  O          2.5750   -2.8040   13.0860 O.2    28  PRO28      -0.2868
     22  CB         0.8780   -5.5290   13.4930 C.3    28  PRO28       0.0268
     23  CG        -0.4290   -5.8150   14.1130 C.3    28  PRO28       0.0207
     24  CD        -0.3110   -5.5910   15.5250 C.3    28  PRO28       0.0892
     25  N         -7.9920   -4.5860   17.7190 N.3   109  ASP109     -0.1239
     26  CA        -6.8250   -4.1940   16.9300 C.3   109  ASP109      0.1674
     27  C         -6.4790   -2.7260   17.1320 C.2   109  ASP109      0.2266
     28  O         -5.3060   -2.3490   17.1470 O.2   109  ASP109     -0.2867
     29  CB        -7.1210   -4.3890   15.4320 C.3   109  ASP109      0.1410
     30  CG        -7.4820   -5.8310   15.0790 C.2   109  ASP109      0.3668
     31  OD1       -6.7880   -6.7500   15.5680 O.co2 109  ASP109     -0.2456
     32  OD2       -8.4640   -6.0110   14.3100 O.co2 109  ASP109     -0.2456
     33  N         -2.9660    4.5740    9.8820 N.3   150  PRO150     -0.2116
     34  CA        -3.5120    4.5370    8.5400 C.3   150  PRO150      0.1372
     35  C         -4.9500    5.0370    8.5290 C.2   150  PRO150      0.2244
     36  O         -5.4780    5.3940    9.6220 O.2   150  PRO150     -0.2868
     37  CB        -3.4100    3.0470    8.1610 C.3   150  PRO150      0.0268
     38  CG        -3.5450    2.3520    9.4780 C.3   150  PRO150      0.0207
     39  CD        -2.8370    3.2280   10.4640 C.3   150  PRO150      0.0892
     40  N         -7.6650    4.1150    5.6160 N.3   152  HIS152     -0.1226
     41  CA        -8.6200    3.6590    4.6110 C.3   152  HIS152      0.1752
     42  C         -9.8110    2.8370    5.1200 C.2   152  HIS152      0.2596
     43  O        -10.8080    2.7520    4.4240 O.2   152  HIS152     -0.2718
     44  CB        -7.9280    3.0780    3.3400 C.3   152  HIS152      0.0759
     45  CG        -7.3830    1.6950    3.4890 C.ar  152  HIS152      0.0818
     46  ND1       -7.4470    0.7740    2.4730 N.ar  152  HIS152     -0.2268
     47  CD2       -6.7190    1.0900    4.5080 C.ar  152  HIS152      0.1154
     48  CE1       -6.8600   -0.3410    2.8560 C.ar  152  HIS152      0.1986
     49  NE2       -6.4170   -0.1810    4.0880 N.ar  152  HIS152     -0.2212
     50  N         -9.7440    2.3190    6.3470 N.am  153  HIS153     -0.1975
     51  CA       -10.8760    1.6080    6.9310 C.3   153  HIS153      0.1656
     52  C        -11.8590    2.4970    7.7150 C.2   153  HIS153      0.2291
     53  O        -12.9100    2.0480    8.0770 O.2   153  HIS153     -0.2864
     54  CB       -10.3740    0.4800    7.8740 C.3   153  HIS153      0.0771
     55  CG        -9.5650   -0.5670    7.1650 C.ar  153  HIS153      0.0820
     56  ND1      -10.0510   -1.2430    6.0670 N.ar  153  HIS153     -0.2267
     57  CD2       -8.3180   -1.0640    7.3950 C.ar  153  HIS153      0.1154
     58  CE1       -9.1570   -2.1490    5.6770 C.ar  153  HIS153      0.1986
     59  NE2       -8.0780   -2.0250    6.4320 N.ar  153  HIS153     -0.2212
     60  N         -9.9250   -1.2810   12.2000 N.3   161  GLY161     -0.1210
     61  CA        -8.7740   -1.7110   11.3730 C.3   161  GLY161      0.1956
     62  C         -7.5330   -0.8090   11.4350 C.2   161  GLY161      0.2611
     63  O         -6.8680   -0.5620   10.4140 O.2   161  GLY161     -0.2717
     64  N         -7.2150   -0.3330   12.6360 N.am  162  PHE162     -0.1976
     65  CA        -6.0700    0.5530   12.8840 C.3   162  PHE162      0.1639
     66  C         -6.2900    2.0430   12.5620 C.2   162  PHE162      0.2290
     67  O         -5.4180    2.8470   12.8650 O.2   162  PHE162     -0.2864
     68  CB        -4.7590    0.0620   12.2330 C.3   162  PHE162      0.0560
     69  CG        -4.3510   -1.3560   12.6280 C.ar  162  PHE162     -0.0200
     70  CD1       -4.6000   -1.8540   13.8880 C.ar  162  PHE162     -0.0042
     71  CD2       -3.6820   -2.1820   11.7080 C.ar  162  PHE162     -0.0042
     72  CE1       -4.2050   -3.1850   14.2530 C.ar  162  PHE162     -0.0003
     73  CE2       -3.2630   -3.5170   12.0710 C.ar  162  PHE162     -0.0003
     74  CZ        -3.5560   -3.9990   13.3460 C.ar  162  PHE162     -0.0000
     75  N         -3.1490   -1.2990   -0.9900 N.3   190  ASP190     -0.1239
     76  CA        -3.1570   -2.0420    0.2350 C.3   190  ASP190      0.1674
     77  C         -3.8890   -3.4030   -0.0390 C.2   190  ASP190      0.2266
     78  O         -4.8440   -3.4340   -0.7910 O.2   190  ASP190     -0.2867
     79  CB        -3.9040   -1.2520    1.3060 C.3   190  ASP190      0.1410
     80  CG        -3.6940   -1.8160    2.6840 C.2   190  ASP190      0.3668
     81  OD1       -4.3630   -2.7960    3.0380 O.co2 190  ASP190     -0.2456
     82  OD2       -2.8780   -1.2910    3.4690 O.co2 190  ASP190     -0.2456
     83  N         -5.8490   -4.9930    1.8090 N.3   192  HIS192     -0.1241
     84  CA        -7.2420   -4.9570    2.3470 C.3   192  HIS192      0.1621
     85  C         -8.0810   -3.9950    1.5720 C.2   192  HIS192      0.2264
     86  O         -7.5620   -2.9710    1.0980 O.2   192  HIS192     -0.2867
     87  CB        -7.2730   -4.5150    3.8150 C.3   192  HIS192      0.0745
     88  CG        -6.4280   -5.3730    4.6920 C.ar  192  HIS192      0.0817
     89  ND1       -5.1420   -5.0350    5.0560 N.ar  192  HIS192     -0.2268
     90  CD2       -6.6860   -6.5750    5.2570 C.ar  192  HIS192      0.1154
     91  CE1       -4.6350   -6.0180    5.7860 C.ar  192  HIS192      0.1986
     92  NE2       -5.5560   -6.9600    5.9160 N.ar  192  HIS192     -0.2212
     93  N        -10.3220   -9.7840    5.9050 N.3   221  PHE221     -0.1241
     94  CA       -10.6250   -8.5120    6.5560 C.3   221  PHE221      0.1605
     95  C        -10.6040   -7.4020    5.4830 C.2   221  PHE221      0.2264
     96  O         -9.6950   -7.3560    4.6800 O.2   221  PHE221     -0.2867
     97  CB        -9.6120   -8.2030    7.6690 C.3   221  PHE221      0.0534
     98  CG        -9.8970   -6.9180    8.3820 C.ar  221  PHE221     -0.0203
     99  CD1       -9.3270   -5.7100    7.9390 C.ar  221  PHE221     -0.0042
    100  CD2      -10.7910   -6.8940    9.4740 C.ar  221  PHE221     -0.0042
    101  CE1       -9.6240   -4.4780    8.6150 C.ar  221  PHE221     -0.0003
    102  CE2      -11.1050   -5.6770   10.1240 C.ar  221  PHE221     -0.0003
    103  CZ       -10.5080   -4.4600    9.6840 C.ar  221  PHE221     -0.0000
    104  N          1.1640   -4.1490    2.5420 N.3   284  ASP284     -0.1239
    105  CA         0.8920   -5.4570    3.0860 C.3   284  ASP284      0.1674
    106  C          0.6440   -6.6070    2.1010 C.2   284  ASP284      0.2266
    107  O          0.4870   -7.7510    2.5260 O.2   284  ASP284     -0.2867
    108  CB        -0.2230   -5.4150    4.1330 C.3   284  ASP284      0.1410
    109  CG        -1.3790   -4.4660    3.7730 C.2   284  ASP284      0.3668
    110  OD1       -1.4820   -3.8980    2.6600 O.co2 284  ASP284     -0.2456
    111  OD2       -2.2090   -4.3540    4.6760 O.co2 284  ASP284     -0.2456
    112  N         -2.3970  -14.6210    7.4980 N.3   292  PRO292     -0.2102
    113  CA        -3.4900  -13.8140    8.0600 C.3   292  PRO292      0.1504
    114  C         -3.3630  -12.3010    7.8470 C.2   292  PRO292      0.2575
    115  O         -4.3560  -11.6140    7.9130 O.2   292  PRO292     -0.2718
    116  CB        -3.4340  -14.1530    9.5690 C.3   292  PRO292      0.0282
    117  CG        -2.0160  -14.5320    9.8090 C.3   292  PRO292      0.0208
    118  CD        -1.6520  -15.3210    8.5690 C.3   292  PRO292      0.0893
    119  N         -2.1620  -11.8040    7.5920 N.am  293  LEU293     -0.1980
    120  CA        -1.9170  -10.3700    7.4060 C.3   293  LEU293      0.1596
    121  C         -1.7270   -9.9230    5.9430 C.2   293  LEU293      0.2287
    122  O         -1.4950   -8.7360    5.6770 O.2   293  LEU293     -0.2864
    123  CB        -0.6850   -9.9430    8.2360 C.3   293  LEU293      0.0297
    124  CG        -0.9290   -9.7500    9.7400 C.3   293  LEU293      0.0022
    125  CD1        0.3840   -9.7840   10.5310 C.3   293  LEU293      0.0001
    126  CD2       -1.7270   -8.4570   10.0740 C.3   293  LEU293      0.0001
    127  N         -1.3630    0.4480    5.1960 N.3   324  GLY324     -0.1210
    128  CA        -0.9590   -0.7110    5.9740 C.3   324  GLY324      0.1956
    129  C          0.3940   -1.2630    5.5640 C.2   324  GLY324      0.2612
    130  O          1.1030   -0.6710    4.7910 O.2   324  GLY324     -0.2717
    131  N          0.7510   -2.4220    6.0720 N.am  325  GLY325     -0.1942
    132  CA         2.0700   -2.9830    5.7480 C.3   325  GLY325      0.2014
    133  C          2.9120   -2.8150    7.0080 C.2   325  GLY325      0.2638
    134  O          3.0990   -1.6880    7.5070 O.2   325  GLY325     -0.2714
    135  N          3.4340   -3.9250    7.5210 N.am  326  HIS326     -0.1973
    136  CA         4.2050   -3.8640    8.7680 C.3   326  HIS326      0.1656
    137  C          5.5730   -4.5830    8.8250 C.2   326  HIS326      0.2291
    138  O          6.2910   -4.4410    9.8190 O.2   326  HIS326     -0.2864
    139  CB         3.3220   -4.2590    9.9540 C.3   326  HIS326      0.0771
    140  CG         3.3490   -5.7180   10.2660 C.ar  326  HIS326      0.0820
    141  ND1        4.4510   -6.3360   10.8270 N.ar  326  HIS326     -0.2267
    142  CD2        2.4040   -6.6760   10.1330 C.ar  326  HIS326      0.1154
    143  CE1        4.1870   -7.6170   11.0130 C.ar  326  HIS326      0.1986
    144  NE2        2.9510   -7.8480   10.6040 N.ar  326  HIS326     -0.2212
@<TRIPOS>BOND
     1    75    76    1
     2    78    77    2
     3    77    76    1
     4    76    79    1
     5    86    85    2
     6    79    80    1
     7    85    84    1
     8    83    84    1
     9   106   107    2
    10   106   105    1
    11    84    87    1
    12    46    48   ar
    13    46    45   ar
    14   104   105    1
    15   110   109   ar
    16    80    81   ar
    17    80    82   ar
    18    48    49   ar
    19   105   108    1
    20    44    45    1
    21    44    41    1
    22    45    47   ar
    23   109   108    1
    24   109   111   ar
    25    87    88    1
    26    49    47   ar
    27    43    42    2
    28    41    42    1
    29    41    40    1
    30    96    95    2
    31    88    89   ar
    32    88    90   ar
    33   130   129    2
    34    89    91   ar
    35    42    50   am
    36   127   128    1
    37    90    92   ar
    38    95    94    1
    39   129   128    1
    40   129   131   am
    41    58    56   ar
    42    58    59   ar
    43   122   121    2
    44   132   131    1
    45   132   133    1
    46    91    92   ar
    47    93    94    1
    48   121   120    1
    49    56    55   ar
    50    50    51    1
    51    59    57   ar
    52    94    97    1
    53    51    52    1
    54    51    54    1
    55   133   134    2
    56   133   135   am
    57    55    57   ar
    58    55    54    1
    59   120   119    1
    60   120   123    1
    61   112   113    1
    62   112   118    1
    63   135   136    1
    64   119   114   am
    65    97    98    1
    66    52    53    2
    67   114   115    2
    68   114   113    1
    69    99    98   ar
    70    99   101   ar
    71   113   116    1
    72    37    34    1
    73    37    38    1
    74   123   124    1
    75    98   100   ar
    76    35    34    1
    77    35    36    2
    78    34    33    1
    79   118   117    1
    80   101   103   ar
    81   136   137    1
    82   136   139    1
    83   137   138    2
    84   100   102   ar
    85    38    39    1
    86   116   117    1
    87   103   102   ar
    88   124   126    1
    89   124   125    1
    90    33    39    1
    91   139   140    1
    92   142   140   ar
    93   142   144   ar
    94   140   141   ar
    95    63    62    2
    96   144   143   ar
    97   141   143   ar
    98    61    62    1
    99    61    60    1
   100    62    64   am
   101    71    73   ar
   102    71    69   ar
   103    73    74   ar
   104    68    69    1
   105    68    65    1
   106    66    67    2
   107    66    65    1
   108    69    70   ar
   109    64    65    1
   110    21    20    2
   111    74    72   ar
   112    22    23    1
   113    22    19    1
   114    20    19    1
   115    70    72   ar
   116    23    24    1
   117    32    30   ar
   118    19    18    1
   119    30    29    1
   120    30    31   ar
   121    29    26    1
   122    24    18    1
   123    26    27    1
   124    26    25    1
   125    27    28    2
   126     4     3    2
   127    10     9    2
   128     9     8    1
   129     3     2    1
   130     3     7   am
   131     2     1    1
   132     2     5    1
   133     8     7    1
   134     8    11    1
   135     5     6    1
   136    11    12    1
   137    12    13    1
   138    13    14    1
   139    14    15    2
   140    16    15    1
   141    15    17    1
