@<TRIPOS>MOLECULE
tmp/3c13A00.pdb
 158 149 0 0 0
SMALL
GASTEIGER

@<TRIPOS>ATOM
      1  N         22.5410  -47.8600  -40.5390 N.3    43  LEU43      -0.1231
      2  CA        21.1710  -47.4510  -40.8240 C.3    43  LEU43       0.1693
      3  C         20.2180  -47.8350  -39.7080 C.2    43  LEU43       0.2592
      4  O         19.3630  -47.0510  -39.3070 O.2    43  LEU43      -0.2718
      5  CB        20.7020  -48.0930  -42.1250 C.3    43  LEU43       0.0284
      6  CG        21.3980  -47.5770  -43.3840 C.3    43  LEU43       0.0019
      7  CD1       20.8240  -48.2270  -44.5970 C.3    43  LEU43       0.0001
      8  CD2       21.2800  -46.0520  -43.4910 C.3    43  LEU43       0.0001
      9  N         20.3460  -49.0620  -39.2290 N.am   44  GLY44      -0.1957
     10  CA        19.5200  -49.5280  -38.1460 C.3    44  GLY44       0.1869
     11  C         20.1360  -50.7160  -37.4480 C.2    44  GLY44       0.2309
     12  O         21.0480  -51.3460  -37.9620 O.2    44  GLY44      -0.2863
     13  N         22.1860  -53.0480  -39.7340 N.3    51  VAL51      -0.1245
     14  CA        22.0400  -52.7950  -41.1560 C.3    51  VAL51       0.1561
     15  C         22.8330  -51.5320  -41.4710 C.2    51  VAL51       0.2260
     16  O         22.7200  -50.5060  -40.7790 O.2    51  VAL51      -0.2867
     17  CB        20.5360  -52.6300  -41.5520 C.3    51  VAL51       0.0252
     18  CG1       20.3500  -52.3580  -43.0320 C.3    51  VAL51       0.0019
     19  CG2       19.7430  -53.8570  -41.1760 C.3    51  VAL51       0.0019
     20  N         23.3210  -52.6550  -49.4340 N.3    64  VAL64      -0.1245
     21  CA        22.8870  -52.6270  -48.0620 C.3    64  VAL64       0.1561
     22  C         23.4890  -53.8550  -47.4400 C.2    64  VAL64       0.2260
     23  O         23.3500  -54.9360  -47.9890 O.2    64  VAL64      -0.2867
     24  CB        21.3710  -52.7180  -47.9440 C.3    64  VAL64       0.0252
     25  CG1       20.9770  -52.9370  -46.4740 C.3    64  VAL64       0.0019
     26  CG2       20.7170  -51.4610  -48.5440 C.3    64  VAL64       0.0019
     27  N         23.8000  -56.3200  -44.1120 N.3    66  LYS66      -0.1245
     28  CA        23.0970  -56.7480  -42.9200 C.3    66  LYS66       0.1561
     29  C         23.9470  -57.7710  -42.2210 C.2    66  LYS66       0.2260
     30  O         24.1020  -58.8820  -42.6970 O.2    66  LYS66      -0.2867
     31  CB        21.7420  -57.3450  -43.2870 C.3    66  LYS66       0.0271
     32  CG        20.9240  -57.8850  -42.1080 C.3    66  LYS66       0.0035
     33  CD        19.4800  -58.0120  -42.5530 C.3    66  LYS66       0.0206
     34  CE        18.6260  -58.8590  -41.6620 C.3    66  LYS66       0.1093
     35  NZ        17.6090  -59.5810  -42.4930 N.3    66  LYS66      -0.1314
     36  N         17.3120  -68.0170  -43.4660 N.3    79  GLU79      -0.1245
     37  CA        17.1370  -66.7620  -44.1610 C.3    79  GLU79       0.1567
     38  C         17.8930  -66.7150  -45.4740 C.2    79  GLU79       0.2260
     39  O         17.4180  -66.1150  -46.4330 O.2    79  GLU79      -0.2867
     40  CB        17.5550  -65.5720  -43.2780 C.3    79  GLU79       0.0388
     41  CG        17.5660  -64.1950  -43.9840 C.3    79  GLU79       0.1160
     42  CD        17.6960  -63.0230  -43.0270 C.2    79  GLU79       0.3649
     43  OE1       17.9330  -63.2360  -41.8240 O.co2  79  GLU79      -0.2457
     44  OE2       17.5670  -61.8690  -43.4800 O.co2  79  GLU79      -0.2457
     45  N         16.1120  -66.4720  -49.1910 N.3    83  LEU83      -0.1245
     46  CA        16.4950  -65.3620  -50.0600 C.3    83  LEU83       0.1561
     47  C         16.9950  -65.8300  -51.4270 C.2    83  LEU83       0.2260
     48  O         16.6880  -65.2180  -52.4570 O.2    83  LEU83      -0.2867
     49  CB        17.5400  -64.5010  -49.3600 C.3    83  LEU83       0.0270
     50  CG        17.0390  -63.5350  -48.2740 C.3    83  LEU83       0.0019
     51  CD1       18.1820  -62.9670  -47.4270 C.3    83  LEU83       0.0001
     52  CD2       16.2660  -62.3860  -48.9240 C.3    83  LEU83       0.0001
     53  N         13.3290  -58.4190  -52.0700 N.3    93  ILE93      -0.1245
     54  CA        14.6690  -57.8770  -51.9870 C.3    93  ILE93       0.1561
     55  C         15.6690  -58.9130  -52.5110 C.2    93  ILE93       0.2260
     56  O         15.4890  -60.1220  -52.3270 O.2    93  ILE93      -0.2867
     57  CB        15.0190  -57.4760  -50.5510 C.3    93  ILE93       0.0252
     58  CG1       16.2210  -56.5490  -50.5640 C.3    93  ILE93       0.0019
     59  CG2       15.2430  -58.7310  -49.7150 C.3    93  ILE93       0.0019
     60  CD1       15.8770  -55.0030  -50.8670 C.3    93  ILE93       0.0001
     61  N         22.6500  -56.8280  -49.9730 N.3   111  PHE111     -0.1241
     62  CA        21.4520  -56.7040  -50.7840 C.3   111  PHE111      0.1605
     63  C         21.5960  -55.5450  -51.7470 C.2   111  PHE111      0.2264
     64  O         22.3860  -54.6290  -51.5090 O.2   111  PHE111     -0.2867
     65  CB        20.2570  -56.3970  -49.9050 C.3   111  PHE111      0.0534
     66  CG        19.9440  -57.4550  -48.9180 C.ar  111  PHE111     -0.0203
     67  CD1       19.2370  -58.5860  -49.3040 C.ar  111  PHE111     -0.0042
     68  CD2       20.3550  -57.3280  -47.6010 C.ar  111  PHE111     -0.0042
     69  CE1       18.9400  -59.5790  -48.3750 C.ar  111  PHE111     -0.0003
     70  CE2       20.0670  -58.3090  -46.6680 C.ar  111  PHE111     -0.0003
     71  CZ        19.3540  -59.4400  -47.0520 C.ar  111  PHE111     -0.0000
     72  N         18.3300  -50.3450  -51.7580 N.3   114  VAL114     -0.1231
     73  CA        17.0220  -49.7290  -51.7910 C.3   114  VAL114      0.1692
     74  C         17.1610  -48.4240  -51.0260 C.2   114  VAL114      0.2592
     75  O         17.9520  -48.3350  -50.0940 O.2   114  VAL114     -0.2718
     76  CB        15.9460  -50.6090  -51.1550 C.3   114  VAL114      0.0266
     77  CG1       15.9020  -51.9660  -51.8570 C.3   114  VAL114      0.0020
     78  CG2       16.1880  -50.7520  -49.6580 C.3   114  VAL114      0.0020
     79  N         16.4200  -47.4110  -51.4520 N.am  115  ASN115     -0.1960
     80  CA        16.3640  -46.1200  -50.7600 C.3   115  ASN115      0.1819
     81  C         16.0950  -46.2970  -49.2550 C.2   115  ASN115      0.2621
     82  O         15.3750  -47.2160  -48.8620 O.2   115  ASN115     -0.2715
     83  CB        15.2270  -45.3000  -51.3760 C.3   115  ASN115      0.1195
     84  CG        15.5760  -43.8620  -51.5600 C.2   115  ASN115      0.2630
     85  OD1       16.5560  -43.5340  -52.2180 O.2   115  ASN115     -0.2716
     86  ND2       14.7430  -42.9810  -51.0240 N.am  115  ASN115     -0.0877
     87  N         16.6570  -45.4300  -48.4110 N.am  116  ASN116     -0.1972
     88  CA        16.4230  -45.5410  -46.9590 C.3   116  ASN116      0.1688
     89  C         15.1140  -44.8490  -46.5550 C.2   116  ASN116      0.2292
     90  O         15.0870  -43.7500  -45.9800 O.2   116  ASN116     -0.2864
     91  CB        17.6190  -45.0380  -46.1340 C.3   116  ASN116      0.1181
     92  CG        17.4880  -45.3550  -44.6380 C.2   116  ASN116      0.2629
     93  OD1       18.0700  -44.6630  -43.8050 O.2   116  ASN116     -0.2716
     94  ND2       16.7360  -46.4060  -44.2980 N.am  116  ASN116     -0.0877
     95  N         11.3770  -46.7290  -45.3890 N.3   118  ASP118     -0.1239
     96  CA        10.3600  -47.7250  -45.1850 C.3   118  ASP118      0.1674
     97  C          8.9620  -47.1500  -45.3720 C.2   118  ASP118      0.2266
     98  O          8.7530  -45.9270  -45.4180 O.2   118  ASP118     -0.2867
     99  CB        10.5120  -48.4280  -43.8160 C.3   118  ASP118      0.1410
    100  CG        10.1370  -47.5460  -42.6190 C.2   118  ASP118      0.3668
    101  OD1        9.0650  -46.9060  -42.6060 O.co2 118  ASP118     -0.2456
    102  OD2       10.9060  -47.5370  -41.6410 O.co2 118  ASP118     -0.2456
    103  N          7.5450  -51.3770  -41.5310 N.3   158  HIS158     -0.1226
    104  CA         9.0120  -51.2950  -41.4560 C.3   158  HIS158      0.1752
    105  C          9.7210  -52.2810  -42.3790 C.2   158  HIS158      0.2596
    106  O         10.8510  -52.0430  -42.7810 O.2   158  HIS158     -0.2718
    107  CB         9.5030  -51.5430  -40.0380 C.3   158  HIS158      0.0759
    108  CG         9.4590  -50.3270  -39.1690 C.ar  158  HIS158      0.0818
    109  ND1        9.9730  -49.1110  -39.5650 N.ar  158  HIS158     -0.2268
    110  CD2        8.9670  -50.1400  -37.9200 C.ar  158  HIS158      0.1154
    111  CE1        9.7990  -48.2250  -38.5990 C.ar  158  HIS158      0.1986
    112  NE2        9.1930  -48.8220  -37.5890 N.ar  158  HIS158     -0.2212
    113  N          9.0550  -53.3730  -42.6950 N.am  159  ASN159     -0.1974
    114  CA         9.6130  -54.4270  -43.5880 C.3   159  ASN159      0.1688
    115  C          9.1880  -54.2660  -45.0250 C.2   159  ASN159      0.2292
    116  O          9.3330  -55.1750  -45.8400 O.2   159  ASN159     -0.2864
    117  CB         9.2720  -55.8150  -43.0500 C.3   159  ASN159      0.1181
    118  CG        10.1290  -56.1910  -41.8720 C.2   159  ASN159      0.2629
    119  OD1       11.1660  -55.5960  -41.6760 O.2   159  ASN159     -0.2716
    120  ND2        9.7050  -57.1710  -41.0680 N.am  159  ASN159     -0.0877
    121  N         10.0440  -51.5880  -47.9970 N.3   161  MET161     -0.1245
    122  CA        10.9500  -50.5390  -48.3460 C.3   161  MET161      0.1570
    123  C         10.4160  -49.9450  -49.6520 C.2   161  MET161      0.2261
    124  O         10.1460  -50.6810  -50.6010 O.2   161  MET161     -0.2867
    125  CB        12.3780  -51.1020  -48.4510 C.3   161  MET161      0.0387
    126  CG        13.0300  -51.4630  -47.1000 C.3   161  MET161      0.0595
    127  SD        13.1990  -50.0840  -45.8830 S.3   161  MET161     -0.1393
    128  CE        14.4930  -49.1160  -46.6210 C.3   161  MET161      0.0692
    129  N         11.2620  -56.8990  -47.3920 N.3   172  ILE172     -0.1231
    130  CA        12.5380  -57.1760  -46.7670 C.3   172  ILE172      0.1692
    131  C         12.4150  -57.9730  -45.4690 C.2   172  ILE172      0.2592
    132  O         11.3450  -58.4230  -45.1060 O.2   172  ILE172     -0.2718
    133  CB        13.3060  -55.8930  -46.5030 C.3   172  ILE172      0.0266
    134  CG1       12.5040  -54.9360  -45.6160 C.3   172  ILE172      0.0019
    135  CG2       13.6800  -55.2500  -47.7970 C.3   172  ILE172      0.0020
    136  CD1       13.3520  -53.8430  -44.9720 C.3   172  ILE172      0.0001
    137  N         13.5530  -58.1520  -44.8090 N.am  173  ASP173     -0.1960
    138  CA        13.7270  -58.9900  -43.6220 C.3   173  ASP173      0.1840
    139  C         13.0110  -60.3350  -43.6120 C.2   173  ASP173      0.2622
    140  O         11.9580  -60.5250  -42.9890 O.2   173  ASP173     -0.2715
    141  CB        13.4500  -58.2270  -42.3450 C.3   173  ASP173      0.1450
    142  CG        14.2130  -58.8100  -41.1890 C.2   173  ASP173      0.3671
    143  OD1       14.3540  -58.1240  -40.1690 O.co2 173  ASP173     -0.2456
    144  OD2       14.6700  -59.9740  -41.3090 O.co2 173  ASP173     -0.2456
    145  N         13.6550  -61.2840  -44.2640 N.am  174  TRP174     -0.1974
    146  CA        13.1300  -62.6390  -44.4010 C.3   174  TRP174      0.1640
    147  C         13.6680  -63.5080  -43.2780 C.2   174  TRP174      0.2290
    148  O         13.6800  -64.7400  -43.3790 O.2   174  TRP174     -0.2864
    149  CB        13.5220  -63.1600  -45.7640 C.3   174  TRP174      0.0576
    150  CG        12.8440  -62.3480  -46.8160 C.ar  174  TRP174      0.0006
    151  CD1       13.2390  -61.1570  -47.3240 C.ar  174  TRP174      0.0946
    152  CD2       11.5930  -62.6500  -47.4300 C.ar  174  TRP174      0.0152
    153  NE1       12.3170  -60.7000  -48.2340 N.ar  174  TRP174     -0.2442
    154  CE2       11.2870  -61.5940  -48.3090 C.ar  174  TRP174      0.0810
    155  CE3       10.6950  -63.6950  -47.3130 C.ar  174  TRP174      0.0012
    156  CZ2       10.1400  -61.5900  -49.0960 C.ar  174  TRP174      0.0191
    157  CZ3        9.5360  -63.6750  -48.0870 C.ar  174  TRP174      0.0001
    158  CH2        9.2800  -62.6350  -48.9650 C.ar  174  TRP174      0.0015
@<TRIPOS>BOND
     1    55    56    2
     2    55    54    1
     3    48    47    2
     4    85    84    2
     5    53    54    1
     6    54    57    1
     7    77    76    1
     8    73    72    1
     9    73    76    1
    10    73    74    1
    11    63    64    2
    12    63    62    1
    13    84    83    1
    14    84    86   am
    15    79    74   am
    16    79    80    1
    17    47    46    1
    18    83    80    1
    19    76    78    1
    20    74    75    2
    21    60    58    1
    22    62    61    1
    23    62    65    1
    24    80    81    1
    25   124   123    2
    26    58    57    1
    27    57    59    1
    28    46    49    1
    29    46    45    1
    30    65    66    1
    31   123   122    1
    32    20    21    1
    33    49    50    1
    34    67    66   ar
    35    67    69   ar
    36    81    82    2
    37    81    87   am
    38   156   158   ar
    39   156   154   ar
    40   158   157   ar
    41    52    50    1
    42    66    68   ar
    43    26    24    1
    44   125   122    1
    45   125   126    1
    46    87    88    1
    47    69    71   ar
    48   122   121    1
    49   154   153   ar
    50   154   152   ar
    51    50    51    1
    52   153   151   ar
    53   157   155   ar
    54    21    24    1
    55    21    22    1
    56    23    22    2
    57    24    25    1
    58   135   133    1
    59    68    70   ar
    60   152   155   ar
    61   152   150   ar
    62   129   130    1
    63   151   150   ar
    64   126   127    1
    65    71    70   ar
    66    88    89    1
    67    88    91    1
    68   150   149    1
    69   130   133    1
    70   130   131    1
    71   128   127    1
    72    89    90    2
    73   133   134    1
    74    39    38    2
    75    91    92    1
    76   116   115    2
    77   149   146    1
    78   134   136    1
    79    38    37    1
    80   131   132    2
    81   131   137   am
    82    98    97    2
    83    95    96    1
    84    97    96    1
    85    96    99    1
    86   115   114    1
    87   137   138    1
    88    92    94   am
    89    92    93    2
    90     7     6    1
    91   146   145    1
    92   146   147    1
    93   145   139   am
    94    37    36    1
    95    37    40    1
    96    27    28    1
    97    41    40    1
    98    41    42    1
    99    99   100    1
   100   138   139    1
   101   138   141    1
   102   139   140    2
   103   114   117    1
   104   114   113    1
   105     8     6    1
   106    44    42   ar
   107     6     5    1
   108   148   147    2
   109    31    28    1
   110    31    32    1
   111   117   118    1
   112    18    17    1
   113    42    43   ar
   114    28    29    1
   115   106   105    2
   116    30    29    2
   117   113   105   am
   118   100   101   ar
   119   100   102   ar
   120    33    32    1
   121    33    34    1
   122    35    34    1
   123   105   104    1
   124   141   142    1
   125     5     2    1
   126   118   119    2
   127   118   120   am
   128    17    19    1
   129    17    14    1
   130   103   104    1
   131    15    14    1
   132    15    16    2
   133   104   107    1
   134   144   142   ar
   135   142   143   ar
   136    14    13    1
   137     2     1    1
   138     2     3    1
   139   107   108    1
   140     3     4    2
   141     3     9   am
   142   109   108   ar
   143   109   111   ar
   144     9    10    1
   145   108   110   ar
   146   111   112   ar
   147    10    11    1
   148    12    11    2
   149   110   112   ar
