@<TRIPOS>MOLECULE
tmp/3c16A00.pdb
 104 101 0 0 0
SMALL
GASTEIGER

@<TRIPOS>ATOM
      1  N         44.7700   11.9840    8.2790 N.3    19  PHE19      -0.1241
      2  CA        45.9760   11.8690    9.0800 C.3    19  PHE19       0.1605
      3  C         47.1390   11.5470    8.1690 C.2    19  PHE19       0.2264
      4  O         47.0160   10.7170    7.2640 O.2    19  PHE19      -0.2867
      5  CB        45.8240   10.7770   10.1310 C.3    19  PHE19       0.0534
      6  CG        45.4020   11.2820   11.4730 C.ar   19  PHE19      -0.0203
      7  CD1       44.0520   11.4440   11.7770 C.ar   19  PHE19      -0.0042
      8  CD2       46.3570   11.5870   12.4410 C.ar   19  PHE19      -0.0042
      9  CE1       43.6550   11.9100   13.0290 C.ar   19  PHE19      -0.0003
     10  CE2       45.9780   12.0570   13.6980 C.ar   19  PHE19      -0.0003
     11  CZ        44.6220   12.2180   13.9950 C.ar   19  PHE19      -0.0000
     12  N         51.8340   17.6320   15.2630 N.3    63  LEU63      -0.1245
     13  CA        52.4770   16.8710   16.3260 C.3    63  LEU63       0.1561
     14  C         53.8190   16.3120   15.8680 C.2    63  LEU63       0.2260
     15  O         53.9240   15.1420   15.4960 O.2    63  LEU63      -0.2867
     16  CB        51.5580   15.7450   16.8170 C.3    63  LEU63       0.0270
     17  CG        50.2260   16.1080   17.4790 C.3    63  LEU63       0.0019
     18  CD1       49.5430   14.8550   17.9850 C.3    63  LEU63       0.0001
     19  CD2       50.4230   17.0870   18.6180 C.3    63  LEU63       0.0001
     20  N         47.6240   16.6780   10.7380 N.3    68  TYR68      -0.1241
     21  CA        46.2460   16.2110   10.5650 C.3    68  TYR68       0.1605
     22  C         45.1710   17.3050   10.5210 C.2    68  TYR68       0.2264
     23  O         45.0600   18.1480   11.4230 O.2    68  TYR68      -0.2867
     24  CB        45.8910   15.1010   11.5710 C.3    68  TYR68       0.0534
     25  CG        45.5800   15.5610   12.9730 C.ar   68  TYR68      -0.0201
     26  CD1       46.6020   15.9160   13.8520 C.ar   68  TYR68      -0.0009
     27  CD2       44.2660   15.6230   13.4270 C.ar   68  TYR68      -0.0009
     28  CE1       46.3230   16.3340   15.1420 C.ar   68  TYR68       0.0417
     29  CE2       43.9770   16.0360   14.7200 C.ar   68  TYR68       0.0417
     30  CZ        45.0130   16.3930   15.5690 C.ar   68  TYR68       0.1957
     31  OH        44.7450   16.8040   16.8480 O.3    68  TYR68      -0.2866
     32  N         40.2210   22.0380   25.2440 N.3   122  LEU122     -0.1245
     33  CA        40.2730   21.5030   26.5960 C.3   122  LEU122      0.1561
     34  C         41.1180   22.3900   27.5050 C.2   122  LEU122      0.2260
     35  O         42.0860   23.0100   27.0610 O.2   122  LEU122     -0.2867
     36  CB        40.8380   20.0800   26.5850 C.3   122  LEU122      0.0270
     37  CG        39.9810   18.9480   26.0050 C.3   122  LEU122      0.0019
     38  CD1       40.8750   17.8690   25.4290 C.3   122  LEU122      0.0001
     39  CD2       39.0340   18.3630   27.0460 C.3   122  LEU122      0.0001
     40  N         41.0510   21.1540   18.7490 N.3   130  ASP130     -0.1225
     41  CA        41.3330   19.7400   18.5070 C.3   130  ASP130      0.1805
     42  C         40.0310   18.9560   18.3320 C.2   130  ASP130      0.2598
     43  O         38.9490   19.4540   18.6610 O.2   130  ASP130     -0.2718
     44  CB        42.1840   19.1530   19.6510 C.3   130  ASP130      0.1424
     45  CG        43.0340   17.9520   19.2130 C.2   130  ASP130      0.3668
     46  OD1       42.7420   17.3410   18.1640 O.co2 130  ASP130     -0.2456
     47  OD2       43.9990   17.6070   19.9250 O.co2 130  ASP130     -0.2456
     48  N         40.1440   17.7410   17.7970 N.am  131  VAL131     -0.1966
     49  CA        39.0020   16.8420   17.6440 C.3   131  VAL131      0.1727
     50  C         39.1790   15.5650   18.4680 C.2   131  VAL131      0.2616
     51  O         40.3020   15.1490   18.7460 O.2   131  VAL131     -0.2715
     52  CB        38.7390   16.4810   16.1490 C.3   131  VAL131      0.0290
     53  CG1       38.3510   17.7250   15.3550 C.3   131  VAL131      0.0023
     54  CG2       39.9430   15.7830   15.5090 C.3   131  VAL131      0.0023
     55  N         38.0660   14.9530   18.8640 N.am  132  TRP132     -0.1960
     56  CA        38.0920   13.6630   19.5550 C.3   132  TRP132      0.1771
     57  C         36.8860   12.7880   19.2220 C.2   132  TRP132      0.2620
     58  O         35.7420   13.2570   19.2090 O.2   132  TRP132     -0.2715
     59  CB        38.1370   13.8460   21.0700 C.3   132  TRP132      0.0590
     60  CG        38.8620   15.0550   21.5400 C.ar  132  TRP132      0.0006
     61  CD1       40.1630   15.1270   21.9340 C.ar  132  TRP132      0.0946
     62  CD2       38.3210   16.3740   21.6870 C.ar  132  TRP132      0.0152
     63  NE1       40.4710   16.4100   22.3110 N.ar  132  TRP132     -0.2442
     64  CE2       39.3590   17.1970   22.1690 C.ar  132  TRP132      0.0810
     65  CE3       37.0610   16.9410   21.4510 C.ar  132  TRP132      0.0012
     66  CZ2       39.1780   18.5610   22.4210 C.ar  132  TRP132      0.0191
     67  CZ3       36.8820   18.2980   21.7030 C.ar  132  TRP132      0.0001
     68  CH2       37.9360   19.0910   22.1840 C.ar  132  TRP132      0.0015
     69  N         37.1650   11.5140   18.9600 N.am  133  SER133     -0.1936
     70  CA        36.1610   10.4440   18.8990 C.3   133  SER133      0.2055
     71  C         36.8530    9.1880   18.4120 C.2   133  SER133      0.2643
     72  O         38.0280    9.2350   18.0420 O.2   133  SER133     -0.2714
     73  CB        34.9670   10.7880   17.9950 C.3   133  SER133      0.2130
     74  OG        35.3380   10.8800   16.6320 O.3   133  SER133     -0.2179
     75  N         36.1300    8.0690   18.4170 N.am  134  ASN134     -0.1971
     76  CA        36.6710    6.7940   17.9380 C.3   134  ASN134      0.1688
     77  C         37.0180    6.8840   16.4610 C.2   134  ASN134      0.2292
     78  O         37.9250    6.2110   15.9720 O.2   134  ASN134     -0.2864
     79  CB        35.6670    5.6650   18.1630 C.3   134  ASN134      0.1181
     80  CG        35.3120    5.4810   19.6210 C.2   134  ASN134      0.2629
     81  OD1       36.1230    5.7370   20.5070 O.2   134  ASN134     -0.2716
     82  ND2       34.0940    5.0300   19.8770 N.am  134  ASN134     -0.0877
     83  N         38.0910    9.5860   14.9950 N.3   136  VAL136     -0.1231
     84  CA        39.3970   10.2180   14.9340 C.3   136  VAL136      0.1692
     85  C         40.4230    9.1380   15.2610 C.2   136  VAL136      0.2592
     86  O         41.4010    8.9390   14.5210 O.2   136  VAL136     -0.2718
     87  CB        39.5440   11.4090   15.9170 C.3   136  VAL136      0.0266
     88  CG1       40.7430   12.2490   15.5290 C.3   136  VAL136      0.0020
     89  CG2       38.3020   12.2780   15.9180 C.3   136  VAL136      0.0020
     90  N         40.1650    8.4240   16.3560 N.am  137  THR137     -0.1953
     91  CA        41.0320    7.3500   16.8230 C.3   137  THR137      0.1897
     92  C         41.2340    6.2960   15.7360 C.2   137  THR137      0.2313
     93  O         42.3210    5.7400   15.6170 O.2   137  THR137     -0.2863
     94  CB        40.4750    6.7060   18.1070 C.3   137  THR137      0.1794
     95  OG1       40.0260    7.7310   18.9980 O.3   137  THR137     -0.2208
     96  CG2       41.5310    5.8890   18.8060 C.3   137  THR137      0.0378
     97  N         43.4070    7.9530   12.8370 N.3   140  ASN140     -0.1240
     98  CA        44.7960    7.9130   13.2860 C.3   140  ASN140      0.1653
     99  C         45.4420    6.5660   12.9760 C.2   140  ASN140      0.2266
    100  O         46.5640    6.5050   12.4570 O.2   140  ASN140     -0.2867
    101  CB        44.8810    8.2010   14.7830 C.3   140  ASN140      0.1155
    102  CG        46.2100    7.7820   15.3820 C.2   140  ASN140      0.2627
    103  OD1       46.3190    6.7220   15.9930 O.2   140  ASN140     -0.2716
    104  ND2       47.2300    8.6050   15.1920 N.am  140  ASN140     -0.0877
@<TRIPOS>BOND
     1     4     3    2
     2     3     2    1
     3     1     2    1
     4     2     5    1
     5     5     6    1
     6    22    21    1
     7    22    23    2
     8    21    20    1
     9    21    24    1
    10     6     7   ar
    11     6     8   ar
    12    24    25    1
    13     7     9   ar
    14     8    10   ar
    15   100    99    2
    16    97    98    1
    17    25    27   ar
    18    25    26   ar
    19    99    98    1
    20     9    11   ar
    21    98   101    1
    22    27    29   ar
    23    10    11   ar
    24    26    28   ar
    25    86    85    2
    26    29    30   ar
    27   101   102    1
    28    84    83    1
    29    84    85    1
    30    84    87    1
    31    28    30   ar
    32   104   102   am
    33    85    90   am
    34    12    13    1
    35    53    52    1
    36   102   103    2
    37    15    14    2
    38    54    52    1
    39    88    87    1
    40    30    31    1
    41    93    92    2
    42    92    91    1
    43    14    13    1
    44    87    89    1
    45    78    77    2
    46    52    49    1
    47    13    16    1
    48    90    91    1
    49    77    76    1
    50    74    73    1
    51    16    17    1
    52    91    94    1
    53    17    18    1
    54    17    19    1
    55    49    48    1
    56    49    50    1
    57    48    42   am
    58    76    79    1
    59    76    75    1
    60    73    70    1
    61    72    71    2
    62    94    96    1
    63    94    95    1
    64    79    80    1
    65    46    45   ar
    66    42    41    1
    67    42    43    2
    68    71    75   am
    69    71    70    1
    70    50    51    2
    71    50    55   am
    72    41    40    1
    73    41    44    1
    74    55    56    1
    75    70    69    1
    76    69    57   am
    77    58    57    2
    78    45    44    1
    79    45    47   ar
    80    57    56    1
    81    56    59    1
    82    80    82   am
    83    80    81    2
    84    59    60    1
    85    65    62   ar
    86    65    67   ar
    87    60    62   ar
    88    60    61   ar
    89    62    64   ar
    90    67    68   ar
    91    61    63   ar
    92    64    63   ar
    93    64    66   ar
    94    68    66   ar
    95    32    33    1
    96    38    37    1
    97    37    36    1
    98    37    39    1
    99    36    33    1
   100    33    34    1
   101    35    34    2
