@<TRIPOS>MOLECULE
tmp/3c16A01.pdb
 92 90 0 0 0
SMALL
GASTEIGER

@<TRIPOS>ATOM
      1  N         51.5910   11.1780    8.0760 N.3    21  ASP21      -0.1225
      2  CA        52.8720   11.0890    8.7610 C.3    21  ASP21       0.1805
      3  C         54.0080   10.9320    7.7590 C.2    21  ASP21       0.2598
      4  O         53.7720   10.7110    6.5720 O.2    21  ASP21      -0.2718
      5  CB        52.8650    9.9240    9.7470 C.3    21  ASP21       0.1424
      6  CG        53.8710   10.1020   10.8580 C.2    21  ASP21       0.3668
      7  OD1       53.7590   11.0890   11.6110 O.co2  21  ASP21      -0.2456
      8  OD2       54.7750    9.2510   10.9870 O.co2  21  ASP21      -0.2456
      9  N         55.2390   11.0450    8.2450 N.am   22  ILE22      -0.1966
     10  CA        56.4060   11.0150    7.3780 C.3    22  ILE22       0.1727
     11  C         57.2120    9.7310    7.5430 C.2    22  ILE22       0.2616
     12  O         57.7710    9.4610    8.6060 O.2    22  ILE22      -0.2715
     13  CB        57.3080   12.2460    7.5990 C.3    22  ILE22       0.0290
     14  CG1       56.4620   13.5250    7.5960 C.3    22  ILE22       0.0022
     15  CG2       58.4100   12.3020    6.5360 C.3    22  ILE22       0.0023
     16  CD1       57.0790   14.6900    8.3480 C.3    22  ILE22       0.0001
     17  N         57.2500    8.9420    6.4740 N.am   23  GLU23      -0.1963
     18  CA        58.0970    7.7620    6.4010 C.3    23  GLU23       0.1733
     19  C         59.5270    8.2330    6.1860 C.2    23  GLU23       0.2617
     20  O         59.7910    9.0580    5.3090 O.2    23  GLU23      -0.2715
     21  CB        57.6560    6.8550    5.2480 C.3    23  GLU23       0.0429
     22  CG        58.1050    5.3960    5.3620 C.3    23  GLU23       0.1163
     23  CD        57.0930    4.5090    6.0770 C.2    23  GLU23       0.3649
     24  OE1       56.8120    3.4030    5.5680 O.co2  23  GLU23      -0.2457
     25  OE2       56.5760    4.9090    7.1410 O.co2  23  GLU23      -0.2457
     26  N         60.4420    7.7140    6.9950 N.am   24  GLY24      -0.1940
     27  CA        61.8360    8.1400    6.9510 C.3    24  GLY24       0.2014
     28  C         62.0200    9.5190    7.5530 C.2    24  GLY24       0.2639
     29  O         62.5260   10.4250    6.8940 O.2    24  GLY24      -0.2714
     30  N         61.5980    9.6810    8.8040 N.am   25  PHE25      -0.1959
     31  CA        61.7630   10.9490    9.5150 C.3    25  PHE25       0.1771
     32  C         63.0990   11.0030   10.2470 C.2    25  PHE25       0.2620
     33  O         63.7390   12.0540   10.3050 O.2    25  PHE25      -0.2715
     34  CB        60.6020   11.1870   10.4890 C.3    25  PHE25       0.0574
     35  CG        60.8010   12.3670   11.4110 C.ar   25  PHE25      -0.0200
     36  CD1       60.6670   13.6700   10.9390 C.ar   25  PHE25      -0.0042
     37  CD2       61.1090   12.1710   12.7560 C.ar   25  PHE25      -0.0042
     38  CE1       60.8460   14.7590   11.7910 C.ar   25  PHE25      -0.0003
     39  CE2       61.2890   13.2540   13.6160 C.ar   25  PHE25      -0.0003
     40  CZ        61.1560   14.5500   13.1330 C.ar   25  PHE25      -0.0000
     41  N         63.5120    9.8680   10.8050 N.am   26  THR26      -0.1951
     42  CA        64.7620    9.7930   11.5540 C.3    26  THR26       0.1897
     43  C         65.9620    9.6990   10.6140 C.2    26  THR26       0.2313
     44  O         67.0550   10.1730   10.9420 O.2    26  THR26      -0.2863
     45  CB        64.7780    8.6040   12.5280 C.3    26  THR26       0.1794
     46  OG1       63.4360    8.2380   12.8720 O.3    26  THR26      -0.2208
     47  CG2       65.5420    8.9750   13.7890 C.3    26  THR26       0.0378
     48  N         49.7510   20.2080   14.6230 N.3    62  ILE62      -0.1231
     49  CA        50.9760   19.5910   14.1300 C.3    62  ILE62       0.1692
     50  C         51.7200   18.9550   15.3040 C.2    62  ILE62       0.2592
     51  O         52.1610   19.6440   16.2250 O.2    62  ILE62      -0.2718
     52  CB        51.8660   20.5950   13.3610 C.3    62  ILE62       0.0266
     53  CG1       51.1650   21.0310   12.0710 C.3    62  ILE62       0.0019
     54  CG2       53.2300   19.9770   13.0440 C.3    62  ILE62       0.0020
     55  CD1       51.7840   22.2410   11.4010 C.3    62  ILE62       0.0001
     56  N         51.8340   17.6320   15.2630 N.am   63  LEU63      -0.1966
     57  CA        52.4770   16.8710   16.3260 C.3    63  LEU63       0.1728
     58  C         53.8190   16.3120   15.8680 C.2    63  LEU63       0.2617
     59  O         53.9240   15.1420   15.4960 O.2    63  LEU63      -0.2715
     60  CB        51.5580   15.7450   16.8170 C.3    63  LEU63       0.0311
     61  CG        50.2260   16.1080   17.4790 C.3    63  LEU63       0.0022
     62  CD1       49.5430   14.8550   17.9850 C.3    63  LEU63       0.0001
     63  CD2       50.4230   17.0870   18.6180 C.3    63  LEU63       0.0001
     64  N         54.8430   17.1610   15.9050 N.am   64  GLY64      -0.1940
     65  CA        56.1730   16.7950   15.4250 C.3    64  GLY64       0.2014
     66  C         56.1600   16.5190   13.9320 C.2    64  GLY64       0.2639
     67  O         56.1680   17.4500   13.1220 O.2    64  GLY64      -0.2714
     68  N         56.1290   15.2370   13.5760 N.am   65  ASP65      -0.1957
     69  CA        56.0760   14.8190   12.1780 C.3    65  ASP65       0.1840
     70  C         54.6590   14.4000   11.7530 C.2    65  ASP65       0.2622
     71  O         54.4550   13.8570   10.6620 O.2    65  ASP65      -0.2715
     72  CB        57.1120   13.7160   11.9070 C.3    65  ASP65       0.1450
     73  CG        56.6420   12.3360   12.3310 C.2    65  ASP65       0.3671
     74  OD1       56.1880   12.1600   13.4820 O.co2  65  ASP65      -0.2456
     75  OD2       56.7470   11.4110   11.5010 O.co2  65  ASP65      -0.2456
     76  N         53.6900   14.6740   12.6230 N.am   66  CYS66      -0.1968
     77  CA        52.2950   14.3170   12.3900 C.3    66  CYS66       0.1712
     78  C         51.4540   15.5460   12.0440 C.2    66  CYS66       0.2296
     79  O         51.3220   16.4790   12.8430 O.2    66  CYS66      -0.2864
     80  CB        51.7240   13.6020   13.6170 C.3    66  CYS66       0.0983
     81  SG        50.0320   13.0120   13.4570 S.3    66  CYS66      -0.0798
     82  N         52.6380    9.2040    4.6560 N.3   109  ARG109     -0.1245
     83  CA        51.7690    8.0530    4.8500 C.3   109  ARG109      0.1563
     84  C         50.3970    8.5430    5.3090 C.2   109  ARG109      0.2260
     85  O         50.2260    8.9640    6.4570 O.2   109  ARG109     -0.2867
     86  CB        52.3890    7.0940    5.8690 C.3   109  ARG109      0.0307
     87  CG        51.8210    5.6850    5.8380 C.3   109  ARG109      0.0489
     88  CD        52.6170    4.7460    6.7300 C.3   109  ARG109      0.2205
     89  NE        52.3830    5.0020    8.1500 N.pl3 109  ARG109     -0.0865
     90  CZ        53.2300    5.6330    8.9590 C.cat 109  ARG109      0.5346
     91  NH1       54.3920    6.0830    8.5030 N.pl3 109  ARG109      0.1354
     92  NH2       52.9120    5.8130   10.2340 N.pl3 109  ARG109      0.1354
@<TRIPOS>BOND
     1    82    83    1
     2    83    84    1
     3    83    86    1
     4    21    22    1
     5    21    18    1
     6    84    85    2
     7    20    19    2
     8    22    23    1
     9    24    23   ar
    10    87    86    1
    11    87    88    1
    12    23    25   ar
    13    19    18    1
    14    19    26   am
    15    18    17    1
    16    17    11   am
    17    15    13    1
    18     4     3    2
    19    88    89    1
    20    29    28    2
    21    27    26    1
    22    27    28    1
    23    10    11    1
    24    10    13    1
    25    10     9    1
    26    11    12    2
    27    28    30   am
    28    14    13    1
    29    14    16    1
    30     3     9   am
    31     3     2    1
    32     1     2    1
    33    89    90    2
    34    91    90    1
    35     2     5    1
    36    30    31    1
    37    90    92    1
    38    31    32    1
    39    31    34    1
    40     5     6    1
    41    32    33    2
    42    32    41   am
    43    34    35    1
    44    43    44    2
    45    43    42    1
    46    71    70    2
    47    41    42    1
    48     6     8   ar
    49     6     7   ar
    50    36    35   ar
    51    36    38   ar
    52    55    53    1
    53    35    37   ar
    54    75    73   ar
    55    42    45    1
    56    70    69    1
    57    70    76   am
    58    38    40   ar
    59    72    69    1
    60    72    73    1
    61    78    77    1
    62    78    79    2
    63    53    52    1
    64    69    68    1
    65    73    74   ar
    66    77    76    1
    67    77    80    1
    68    45    46    1
    69    45    47    1
    70    37    39   ar
    71    54    52    1
    72    67    66    2
    73    40    39   ar
    74    52    49    1
    75    81    80    1
    76    68    66   am
    77    66    65    1
    78    49    48    1
    79    49    50    1
    80    56    50   am
    81    56    57    1
    82    50    51    2
    83    65    64    1
    84    59    58    2
    85    58    64   am
    86    58    57    1
    87    57    60    1
    88    60    61    1
    89    61    62    1
    90    61    63    1
