@<TRIPOS>MOLECULE
tmp/3c1aA00.pdb
 110 105 0 0 0
SMALL
GASTEIGER

@<TRIPOS>ATOM
      1  N          2.7930   15.2440    2.0010 N.3   119  THR119     -0.1203
      2  CA         2.9340   13.8000    2.1570 C.3   119  THR119      0.1994
      3  C          3.2300   13.3720    3.6070 C.2   119  THR119      0.2617
      4  O          2.8040   12.3060    4.0430 O.2   119  THR119     -0.2717
      5  CB         4.0230   13.3160    1.2360 C.3   119  THR119      0.1784
      6  OG1        3.7790   13.8650   -0.0680 O.3   119  THR119     -0.2211
      7  CG2        4.0380   11.7950    1.1620 C.3   119  THR119      0.0376
      8  N          3.9810   14.1850    4.3440 N.am  120  GLN120     -0.1979
      9  CA         4.3770   13.7750    5.6970 C.3   120  GLN120      0.1601
     10  C          3.1700   13.6450    6.5970 C.2   120  GLN120      0.2287
     11  O          3.1680   12.8620    7.5270 O.2   120  GLN120     -0.2864
     12  CB         5.3430   14.7690    6.3500 C.3   120  GLN120      0.0394
     13  CG         5.9890   14.1560    7.6320 C.3   120  GLN120      0.0908
     14  CD         7.0200   13.1490    7.2720 C.2   120  GLN120      0.2608
     15  OE1        6.7590   11.9370    7.2790 O.2   120  GLN120     -0.2717
     16  NE2        8.1970   13.6280    6.8830 N.am  120  GLN120     -0.0878
     17  N          1.9380   10.1900    6.6150 N.3   123  ASN123     -0.1240
     18  CA         2.9460    9.1700    6.8750 C.3   123  ASN123      0.1653
     19  C          2.6560    8.5050    8.2150 C.2   123  ASN123      0.2266
     20  O          2.5650    9.1960    9.2300 O.2   123  ASN123     -0.2867
     21  CB         4.3180    9.8530    6.8900 C.3   123  ASN123      0.1155
     22  CG         5.4630    8.8770    7.0840 C.2   123  ASN123      0.2627
     23  OD1        5.2590    7.6990    7.3840 O.2   123  ASN123     -0.2716
     24  ND2        6.6840    9.3810    6.9650 N.am  123  ASN123     -0.0877
     25  N         14.7080   20.0720   11.2670 N.3   144  SER144     -0.1202
     26  CA        14.6360   19.1350   10.1400 C.3   144  SER144      0.2020
     27  C         15.7050   19.4390    9.1070 C.2   144  SER144      0.2618
     28  O         16.2460   20.5510    9.0510 O.2   144  SER144     -0.2717
     29  CB        13.2550   19.1630    9.4860 C.3   144  SER144      0.2103
     30  OG        13.0000   20.4330    8.8970 O.3   144  SER144     -0.2182
     31  N         15.9980   18.4150    8.3140 N.am  145  GLU145     -0.1979
     32  CA        16.9460   18.4820    7.2140 C.3   145  GLU145      0.1602
     33  C         16.4670   17.6230    6.0350 C.2   145  GLU145      0.2287
     34  O         16.1510   16.3910    6.1870 O.2   145  GLU145     -0.2864
     35  CB        18.3020   17.9530    7.6840 C.3   145  GLU145      0.0415
     36  CG        19.4140   18.1900    6.7100 C.3   145  GLU145      0.1163
     37  CD        20.7290   17.7080    7.2770 C.2   145  GLU145      0.3649
     38  OE1       20.9130   16.4910    7.4120 O.co2 145  GLU145     -0.2457
     39  OE2       21.5530   18.5620    7.6300 O.co2 145  GLU145     -0.2457
     40  N          7.0310   21.0590    2.1900 N.3   165  HIS165     -0.1226
     41  CA         6.9710   19.7070    2.7830 C.3   165  HIS165      0.1752
     42  C          7.2660   19.7760    4.3210 C.2   165  HIS165      0.2596
     43  O          6.5370   19.2110    5.1570 O.2   165  HIS165     -0.2718
     44  CB         7.9450   18.8260    2.0500 C.3   165  HIS165      0.0759
     45  CG         7.9580   17.4210    2.5330 C.ar  165  HIS165      0.0818
     46  ND1        6.8620   16.5960    2.4350 N.ar  165  HIS165     -0.2268
     47  CD2        8.9300   16.6970    3.1430 C.ar  165  HIS165      0.1154
     48  CE1        7.1630   15.4110    2.9540 C.ar  165  HIS165      0.1986
     49  NE2        8.4090   15.4500    3.4020 N.ar  165  HIS165     -0.2212
     50  N          8.2890   20.5430    4.6920 N.am  166  ASP166     -0.1974
     51  CA         8.6920   20.6620    6.1010 C.3   166  ASP166      0.1709
     52  C          7.9230   21.7590    6.8540 C.2   166  ASP166      0.2293
     53  O          7.7060   21.6260    8.0350 O.2   166  ASP166     -0.2864
     54  CB        10.2200   20.8250    6.2020 C.3   166  ASP166      0.1436
     55  CG        10.9710   19.6530    5.5610 C.2   166  ASP166      0.3671
     56  OD1       10.4840   18.5080    5.6570 O.co2 166  ASP166     -0.2456
     57  OD2       12.0190   19.8620    4.9260 O.co2 166  ASP166     -0.2456
     58  N         16.5200   12.8270    4.5070 N.3   219  ARG219     -0.1231
     59  CA        15.3390   13.4570    5.1020 C.3   219  ARG219      0.1694
     60  C         15.3020   13.0430    6.5500 C.2   219  ARG219      0.2592
     61  O         15.1990   11.8300    6.8700 O.2   219  ARG219     -0.2718
     62  CB        14.0640   12.9930    4.4180 C.3   219  ARG219      0.0321
     63  CG        13.9100   13.4890    2.9690 C.3   219  ARG219      0.0489
     64  CD        13.6990   15.0080    2.9640 C.3   219  ARG219      0.2205
     65  NE        13.1210   15.4950    1.7080 N.pl3 219  ARG219     -0.0865
     66  CZ        13.8590   15.8220    0.6290 C.cat 219  ARG219      0.5346
     67  NH1       15.1830   15.6740    0.6580 N.pl3 219  ARG219      0.1354
     68  NH2       13.2660   16.3010   -0.4520 N.pl3 219  ARG219      0.1354
     69  N         15.4030   14.0170    7.4500 N.am  220  ARG220     -0.1966
     70  CA        15.3170   13.6760    8.8640 C.3   220  ARG220      0.1729
     71  C         14.6980   14.8010    9.6300 C.2   220  ARG220      0.2616
     72  O         14.7890   15.9650    9.2170 O.2   220  ARG220     -0.2715
     73  CB        16.6770   13.2890    9.4390 C.3   220  ARG220      0.0348
     74  CG        17.7980   14.2220    9.1150 C.3   220  ARG220      0.0492
     75  CD        19.0650   13.6940    9.7420 C.3   220  ARG220      0.2205
     76  NE        20.2080   14.5730    9.5210 N.pl3 220  ARG220     -0.0865
     77  CZ        21.3680   14.4520   10.1570 C.cat 220  ARG220      0.5346
     78  NH1       21.5250   13.5060   11.0830 N.pl3 220  ARG220      0.1354
     79  NH2       22.3640   15.2950    9.8880 N.pl3 220  ARG220      0.1354
     80  N         14.0400   14.4670   10.7320 N.am  221  LEU221     -0.1977
     81  CA        13.6000   15.5050   11.6590 C.3   221  LEU221      0.1596
     82  C         13.7560   15.0250   13.0950 C.2   221  LEU221      0.2287
     83  O         13.9020   13.8290   13.3470 O.2   221  LEU221     -0.2864
     84  CB        12.1710   15.9610   11.3580 C.3   221  LEU221      0.0297
     85  CG        11.0010   15.0020   11.5690 C.3   221  LEU221      0.0022
     86  CD1       10.6290   14.7330   13.0750 C.3   221  LEU221      0.0001
     87  CD2        9.8260   15.6030   10.7990 C.3   221  LEU221      0.0001
     88  N         14.2350    9.5040   10.6920 N.3   232  ASP232     -0.1225
     89  CA        15.4500    9.5780    9.8690 C.3   232  ASP232      0.1805
     90  C         15.4680    8.5160    8.7830 C.2   232  ASP232      0.2597
     91  O         15.4120    7.3360    9.1020 O.2   232  ASP232     -0.2718
     92  CB        16.6670    9.3730   10.7640 C.3   232  ASP232      0.1424
     93  CG        17.9920    9.5610   10.0190 C.2   232  ASP232      0.3668
     94  OD1       18.0030    9.5740    8.7610 O.co2 232  ASP232     -0.2456
     95  OD2       19.0160    9.7090   10.7140 O.co2 232  ASP232     -0.2456
     96  N         15.5740    8.9270    7.5140 N.am  233  ASP233     -0.1974
     97  CA        15.5720    7.9660    6.3800 C.3   233  ASP233      0.1709
     98  C         16.7280    6.9780    6.3560 C.2   233  ASP233      0.2293
     99  O         16.5580    5.8330    5.9270 O.2   233  ASP233     -0.2864
    100  CB        15.5670    8.6910    5.0340 C.3   233  ASP233      0.1436
    101  CG        14.1930    8.9590    4.5480 C.2   233  ASP233      0.3671
    102  OD1       13.2430    8.4820    5.2140 O.co2 233  ASP233     -0.2456
    103  OD2       14.0620    9.6360    3.4990 O.co2 233  ASP233     -0.2456
    104  N          3.0750    6.4610    2.6370 N.3   264  PRO264     -0.2116
    105  CA         2.3540    7.7180    2.8010 C.3   264  PRO264      0.1372
    106  C          1.4310    8.0930    1.6450 C.2   264  PRO264      0.2244
    107  O          0.2880    8.4760    1.8960 O.2   264  PRO264     -0.2868
    108  CB         3.4750    8.7490    2.9770 C.3   264  PRO264      0.0268
    109  CG         4.6040    7.9550    3.5740 C.3   264  PRO264      0.0207
    110  CD         4.5060    6.5930    2.9490 C.3   264  PRO264      0.0892
@<TRIPOS>BOND
     1    68    66    1
     2     6     5    1
     3    66    67    1
     4    66    65    2
     5     7     5    1
     6     5     2    1
     7   106   107    2
     8   106   105    1
     9    65    64    1
    10     1     2    1
    11    44    45    1
    12    44    41    1
    13     2     3    1
    14    40    41    1
    15    46    45   ar
    16    46    48   ar
    17    45    47   ar
    18   104   105    1
    19   104   110    1
    20    41    42    1
    21   105   108    1
    22   110   109    1
    23    48    49   ar
    24    64    63    1
    25    63    62    1
    26   108   109    1
    27    47    49   ar
    28   103   101   ar
    29     3     4    2
    30     3     8   am
    31    42    50   am
    32    42    43    2
    33     8     9    1
    34    62    59    1
    35    58    59    1
    36   101   100    1
    37   101   102   ar
    38    50    51    1
    39    57    55   ar
    40   100    97    1
    41    59    60    1
    42    55    56   ar
    43    55    54    1
    44     9    12    1
    45     9    10    1
    46    99    98    2
    47    33    34    2
    48    33    32    1
    49    51    54    1
    50    51    52    1
    51    12    13    1
    52    98    97    1
    53    97    96    1
    54    60    61    2
    55    60    69   am
    56    10    11    2
    57    17    18    1
    58    36    37    1
    59    36    35    1
    60    52    53    2
    61    18    21    1
    62    18    19    1
    63    16    14   am
    64    21    22    1
    65    24    22   am
    66    22    23    2
    67    32    35    1
    68    32    31    1
    69    14    15    2
    70    14    13    1
    71    37    38   ar
    72    37    39   ar
    73    69    70    1
    74    96    90   am
    75    19    20    2
    76    31    27   am
    77    94    93   ar
    78    90    91    2
    79    90    89    1
    80    70    73    1
    81    70    71    1
    82    30    29    1
    83    28    27    2
    84    27    26    1
    85    74    73    1
    86    74    75    1
    87    72    71    2
    88    29    26    1
    89    76    75    1
    90    76    77    2
    91    71    80   am
    92    89    88    1
    93    89    92    1
    94    79    77    1
    95    93    95   ar
    96    93    92    1
    97    26    25    1
    98    77    78    1
    99    80    81    1
   100    87    85    1
   101    84    85    1
   102    84    81    1
   103    85    86    1
   104    81    82    1
   105    82    83    2
