@<TRIPOS>MOLECULE
tmp/3c1aB00.pdb
 120 114 0 0 0
SMALL
GASTEIGER

@<TRIPOS>ATOM
      1  N         15.5600   27.9470   45.9600 N.3   119  THR119     -0.1203
      2  CA        15.4510   29.4240   46.1650 C.3   119  THR119      0.1994
      3  C         15.0710   29.8750   47.5730 C.2   119  THR119      0.2617
      4  O         15.4170   31.0030   47.9960 O.2   119  THR119     -0.2717
      5  CB        14.4210   30.0170   45.1890 C.3   119  THR119      0.1784
      6  OG1       14.6460   29.4890   43.8640 O.3   119  THR119     -0.2211
      7  CG2       14.5330   31.5510   45.1420 C.3   119  THR119      0.0376
      8  N         14.3360   29.0370   48.2930 N.am  120  GLN120     -0.1979
      9  CA        13.9790   29.3410   49.6870 C.3   120  GLN120      0.1601
     10  C         15.1970   29.4780   50.5770 C.2   120  GLN120      0.2287
     11  O         15.2090   30.3180   51.4680 O.2   120  GLN120     -0.2864
     12  CB        13.0720   28.2520   50.2890 C.3   120  GLN120      0.0394
     13  CG        12.3970   28.7200   51.5610 C.3   120  GLN120      0.0908
     14  CD        11.2730   29.6710   51.2750 C.2   120  GLN120      0.2608
     15  OE1       11.4410   30.8970   51.3480 O.2   120  GLN120     -0.2717
     16  NE2       10.1140   29.1110   50.9060 N.am  120  GLN120     -0.0878
     17  N         16.3360   32.9030   50.5260 N.3   123  ASN123     -0.1240
     18  CA        15.3310   33.9310   50.8040 C.3   123  ASN123      0.1653
     19  C         15.6430   34.5580   52.1580 C.2   123  ASN123      0.2266
     20  O         15.7180   33.8480   53.1770 O.2   123  ASN123     -0.2867
     21  CB        13.9570   33.2790   50.7870 C.3   123  ASN123      0.1155
     22  CG        12.8370   34.2370   51.0370 C.2   123  ASN123      0.2627
     23  OD1       13.0450   35.4180   51.3090 O.2   123  ASN123     -0.2716
     24  ND2       11.6240   33.7200   50.9790 N.am  123  ASN123     -0.0877
     25  N         13.7810   36.0690   54.1480 N.3   125  ALA125     -0.1245
     26  CA        12.7070   35.7790   55.0890 C.3   125  ALA125      0.1562
     27  C         12.9450   34.4360   55.8040 C.2   125  ALA125      0.2260
     28  O         12.7050   34.3350   57.0060 O.2   125  ALA125     -0.2867
     29  CB        11.3490   35.8280   54.3720 C.3   125  ALA125      0.0290
     30  N          3.5970   23.2490   55.2230 N.3   144  SER144     -0.1202
     31  CA         3.6750   24.2200   54.1510 C.3   144  SER144      0.2020
     32  C          2.6480   23.9420   53.0830 C.2   144  SER144      0.2619
     33  O          2.1320   22.8380   52.9790 O.2   144  SER144     -0.2717
     34  CB         5.0740   24.2750   53.5450 C.3   144  SER144      0.2103
     35  OG         5.3400   23.0900   52.8370 O.3   144  SER144     -0.2182
     36  N          2.3300   24.9750   52.3090 N.am  145  GLU145     -0.1965
     37  CA         1.3940   24.8070   51.1990 C.3   145  GLU145      0.1733
     38  C          1.8270   25.6410   50.0090 C.2   145  GLU145      0.2616
     39  O          2.1600   26.8430   50.1560 O.2   145  GLU145     -0.2715
     40  CB        -0.0050   25.1860   51.6640 C.3   145  GLU145      0.0429
     41  CG        -1.0900   25.1080   50.6580 C.3   145  GLU145      0.1163
     42  CD        -2.3850   25.5780   51.2650 C.2   145  GLU145      0.3649
     43  OE1       -2.5980   26.8130   51.4270 O.co2 145  GLU145     -0.2457
     44  OE2       -3.1540   24.7090   51.6580 O.co2 145  GLU145     -0.2457
     45  N          1.8030   24.9770   48.8460 N.am  146  ALA146     -0.1977
     46  CA         2.1770   25.5350   47.5480 C.3   146  ALA146      0.1597
     47  C          1.0530   25.2690   46.5900 C.2   146  ALA146      0.2287
     48  O          0.7030   24.1030   46.3550 O.2   146  ALA146     -0.2864
     49  CB         3.4340   24.8740   47.0260 C.3   146  ALA146      0.0319
     50  N         11.4280   22.5290   46.2500 N.3   165  HIS165     -0.1226
     51  CA        11.4380   23.8130   46.9170 C.3   165  HIS165      0.1752
     52  C         11.0590   23.6850   48.4110 C.2   165  HIS165      0.2596
     53  O         11.6660   24.3420   49.2870 O.2   165  HIS165     -0.2718
     54  CB        10.5150   24.6850   46.1070 C.3   165  HIS165      0.0759
     55  CG        10.3650   26.0680   46.6270 C.ar  165  HIS165      0.0818
     56  ND1       11.3600   27.0160   46.5100 N.ar  165  HIS165     -0.2268
     57  CD2        9.3190   26.6810   47.2280 C.ar  165  HIS165      0.1154
     58  CE1       10.9420   28.1510   47.0500 C.ar  165  HIS165      0.1986
     59  NE2        9.7010   27.9760   47.4840 N.ar  165  HIS165     -0.2212
     60  N         10.0700   22.8450   48.7250 N.am  166  ASP166     -0.1974
     61  CA         9.6190   22.6960   50.0990 C.3   166  ASP166      0.1709
     62  C         10.3810   21.6500   50.9110 C.2   166  ASP166      0.2293
     63  O         10.6280   21.8740   52.0930 O.2   166  ASP166     -0.2864
     64  CB         8.1020   22.5100   50.1510 C.3   166  ASP166      0.1436
     65  CG         7.3510   23.7040   49.5330 C.2   166  ASP166      0.3671
     66  OD1        7.7840   24.8730   49.7180 O.co2 166  ASP166     -0.2456
     67  OD2        6.3430   23.4750   48.8570 O.co2 166  ASP166     -0.2456
     68  N          1.5840   30.5020   48.6170 N.3   219  ARG219     -0.1231
     69  CA         2.8780   29.9870   49.0990 C.3   219  ARG219      0.1694
     70  C          2.9610   30.3420   50.5600 C.2   219  ARG219      0.2592
     71  O          3.0700   31.5270   50.9070 O.2   219  ARG219     -0.2718
     72  CB         4.0550   30.6260   48.3590 C.3   219  ARG219      0.0321
     73  CG         4.1050   30.4200   46.8590 C.3   219  ARG219      0.0489
     74  CD         5.3580   31.1110   46.2890 C.3   219  ARG219      0.2205
     75  NE         6.6070   30.5040   46.7870 N.pl3 219  ARG219     -0.0865
     76  CZ         7.5130   31.1150   47.5510 C.cat 219  ARG219      0.5346
     77  NH1        7.3520   32.3820   47.9380 N.pl3 219  ARG219      0.1354
     78  NH2        8.6000   30.4520   47.9190 N.pl3 219  ARG219      0.1354
     79  N          2.8520   29.3460   51.4350 N.am  220  ARG220     -0.1966
     80  CA         2.9990   29.6420   52.8640 C.3   220  ARG220      0.1729
     81  C          3.6220   28.5160   53.6350 C.2   220  ARG220      0.2616
     82  O          3.5670   27.3460   53.2410 O.2   220  ARG220     -0.2715
     83  CB         1.6830   30.0880   53.4830 C.3   220  ARG220      0.0348
     84  CG         0.5320   29.2440   53.1350 C.3   220  ARG220      0.0492
     85  CD        -0.6710   29.6960   53.8550 C.3   220  ARG220      0.2205
     86  NE        -1.8330   28.9120   53.4950 N.pl3 220  ARG220     -0.0865
     87  CZ        -3.0010   29.0250   54.1200 C.cat 220  ARG220      0.5346
     88  NH1       -3.1470   29.8950   55.1100 N.pl3 220  ARG220      0.1354
     89  NH2       -4.0250   28.2820   53.7490 N.pl3 220  ARG220      0.1354
     90  N          4.2570   28.8740   54.7360 N.am  221  LEU221     -0.1977
     91  CA         4.7420   27.8700   55.6280 C.3   221  LEU221      0.1596
     92  C          4.5960   28.3860   57.0680 C.2   221  LEU221      0.2287
     93  O          4.5200   29.6200   57.3190 O.2   221  LEU221     -0.2864
     94  CB         6.1860   27.4490   55.2890 C.3   221  LEU221      0.0297
     95  CG         7.3360   28.4440   55.5070 C.3   221  LEU221      0.0022
     96  CD1        7.7480   28.5530   56.9760 C.3   221  LEU221      0.0001
     97  CD2        8.5260   27.9670   54.6090 C.3   221  LEU221      0.0001
     98  N          4.1030   33.8230   54.6110 N.3   232  ASP232     -0.1225
     99  CA         2.8860   33.6780   53.8160 C.3   232  ASP232      0.1805
    100  C          2.7900   34.7850   52.7780 C.2   232  ASP232      0.2597
    101  O          2.6000   35.9360   53.1500 O.2   232  ASP232     -0.2718
    102  CB         1.6780   33.7390   54.7650 C.3   232  ASP232      0.1424
    103  CG         0.3350   33.7480   54.0380 C.2   232  ASP232      0.3668
    104  OD1        0.2710   33.7100   52.7680 O.co2 232  ASP232     -0.2456
    105  OD2       -0.6700   33.7930   54.7760 O.co2 232  ASP232     -0.2456
    106  N          2.9000   34.4320   51.4910 N.am  233  ASP233     -0.1974
    107  CA         2.8550   35.4260   50.3780 C.3   233  ASP233      0.1709
    108  C          1.6770   36.4070   50.3870 C.2   233  ASP233      0.2293
    109  O          1.8240   37.5290   49.9030 O.2   233  ASP233     -0.2864
    110  CB         2.8930   34.7360   49.0060 C.3   233  ASP233      0.1436
    111  CG         4.2820   34.6800   48.4250 C.2   233  ASP233      0.3671
    112  OD1        5.2580   35.0010   49.1400 O.co2 233  ASP233     -0.2456
    113  OD2        4.3970   34.3230   47.2370 O.co2 233  ASP233     -0.2456
    114  N         15.2530   36.6420   46.4390 N.3   264  PRO264     -0.2116
    115  CA        16.0090   35.3890   46.5990 C.3   264  PRO264      0.1372
    116  C         16.8840   34.9360   45.4100 C.2   264  PRO264      0.2244
    117  O         17.9670   34.3910   45.6420 O.2   264  PRO264     -0.2868
    118  CB        14.9100   34.3460   46.9090 C.3   264  PRO264      0.0268
    119  CG        13.7980   35.1880   47.4990 C.3   264  PRO264      0.0207
    120  CD        13.8160   36.4290   46.6820 C.3   264  PRO264      0.0892
@<TRIPOS>BOND
     1     6     5    1
     2     7     5    1
     3     5     2    1
     4   116   117    2
     5   116   115    1
     6     1     2    1
     7    54    55    1
     8    54    51    1
     9     2     3    1
    10    50    51    1
    11    74    75    1
    12    74    73    1
    13    48    47    2
    14   114   115    1
    15   114   120    1
    16    56    55   ar
    17    56    58   ar
    18    47    46    1
    19   115   118    1
    20    55    57   ar
    21   120   119    1
    22    75    76    2
    23    73    72    1
    24   118   119    1
    25    51    52    1
    26    49    46    1
    27    58    59   ar
    28    57    59   ar
    29   113   111   ar
    30    46    45    1
    31    76    78    1
    32    76    77    1
    33     3     4    2
    34     3     8   am
    35     8     9    1
    36    72    69    1
    37    52    60   am
    38    52    53    2
    39   111   110    1
    40   111   112   ar
    41    68    69    1
    42    60    61    1
    43    45    38   am
    44    67    65   ar
    45   110   107    1
    46    69    70    1
    47    65    66   ar
    48    65    64    1
    49     9    12    1
    50     9    10    1
    51   109   108    2
    52    38    39    2
    53    38    37    1
    54    61    64    1
    55    61    62    1
    56    12    13    1
    57   107   108    1
    58   107   106    1
    59    17    18    1
    60    70    71    2
    61    70    79   am
    62    10    11    2
    63    41    42    1
    64    41    40    1
    65    21    18    1
    66    21    22    1
    67    18    19    1
    68    16    14   am
    69    62    63    2
    70    24    22   am
    71    22    23    2
    72    37    40    1
    73    37    36    1
    74    42    43   ar
    75    42    44   ar
    76    14    15    2
    77    14    13    1
    78    79    80    1
    79   106   100   am
    80    19    20    2
    81    36    32   am
    82   104   103   ar
    83   100   101    2
    84   100    99    1
    85    35    34    1
    86    80    83    1
    87    80    81    1
    88    33    32    2
    89    32    31    1
    90    84    83    1
    91    84    85    1
    92    82    81    2
    93    86    85    1
    94    86    87    2
    95    34    31    1
    96    81    90   am
    97    89    87    1
    98    99    98    1
    99    99   102    1
   100   103   102    1
   101   103   105   ar
   102    87    88    1
   103    25    26    1
   104    31    30    1
   105    29    26    1
   106    97    95    1
   107    90    91    1
   108    26    27    1
   109    94    95    1
   110    94    91    1
   111    95    96    1
   112    91    92    1
   113    27    28    2
   114    92    93    2
