@<TRIPOS>MOLECULE
tmp/3c1iA00.pdb
 182 171 0 0 0
SMALL
GASTEIGER

@<TRIPOS>ATOM
      1  N         47.4860   26.5810   11.8830 N.3    22  MET22      -0.1196
      2  CA        47.3350   25.3300   11.1290 C.3    22  MET22       0.1786
      3  C         46.2900   25.4780   10.0400 C.2    22  MET22       0.2306
      4  O         46.4850   25.0180    8.9100 O.2    22  MET22      -0.2863
      5  CB        46.9620   24.1530   12.0440 C.2    22  MET22       0.0070
      6  CG        48.0060   23.7810   13.1080 C.2    22  MET22       0.0282
      7  SD        47.6250   22.2720   14.0800 S.3    22  MET22      -0.1125
      8  CE        47.9170   20.9930   12.8690 C.3    22  MET22       0.0742
      9  N         46.4590   24.6090    6.4230 N.3    27  ILE27      -0.1245
     10  CA        45.7160   23.6150    5.6450 C.3    27  ILE27       0.1561
     11  C         45.3170   24.1930    4.2850 C.2    27  ILE27       0.2260
     12  O         45.2480   23.4700    3.2780 O.2    27  ILE27      -0.2867
     13  CB        44.4590   23.1200    6.4110 C.3    27  ILE27       0.0252
     14  CG1       43.9880   21.7510    5.9090 C.3    27  ILE27       0.0019
     15  CG2       43.3210   24.1230    6.3000 C.3    27  ILE27       0.0019
     16  CD1       44.9110   20.6080    6.2790 C.3    27  ILE27       0.0001
     17  N         48.4650   23.9000    2.0920 N.3    30  PHE30      -0.1227
     18  CA        48.7230   22.5030    1.8180 C.3    30  PHE30       0.1736
     19  C         47.9020   22.0460    0.5970 C.2    30  PHE30       0.2595
     20  O         48.4570   21.5750   -0.4110 O.2    30  PHE30      -0.2718
     21  CB        48.3820   21.6690    3.0550 C.3    30  PHE30       0.0547
     22  CG        48.6620   20.2230    2.8870 C.ar   30  PHE30      -0.0202
     23  CD1       49.9260   19.7180    3.1470 C.ar   30  PHE30      -0.0042
     24  CD2       47.6690   19.3620    2.4400 C.ar   30  PHE30      -0.0042
     25  CE1       50.1860   18.3670    2.9920 C.ar   30  PHE30      -0.0003
     26  CE2       47.9330   18.0070    2.2540 C.ar   30  PHE30      -0.0003
     27  CZ        49.1800   17.5100    2.5410 C.ar   30  PHE30      -0.0000
     28  N         46.5830   22.2170    0.6910 N.am   31  TYR31      -0.1976
     29  CA        45.6800   21.8620   -0.3930 C.3    31  TYR31       0.1639
     30  C         45.9110   22.7390   -1.6090 C.2    31  TYR31       0.2290
     31  O         45.7740   22.2810   -2.7490 O.2    31  TYR31      -0.2864
     32  CB        44.2200   21.9650    0.0540 C.3    31  TYR31       0.0560
     33  CG        43.7430   20.8230    0.9470 C.ar   31  TYR31      -0.0198
     34  CD1       43.7100   19.5000    0.4810 C.ar   31  TYR31      -0.0009
     35  CD2       43.2940   21.0690    2.2480 C.ar   31  TYR31      -0.0009
     36  CE1       43.2540   18.4560    1.2990 C.ar   31  TYR31       0.0417
     37  CE2       42.8360   20.0330    3.0640 C.ar   31  TYR31       0.0417
     38  CZ        42.8180   18.7350    2.5850 C.ar   31  TYR31       0.1957
     39  OH        42.3710   17.7230    3.4010 O.3    31  TYR31      -0.2866
     40  N         48.1880   21.2830   -4.0900 N.3    34  LEU34      -0.1245
     41  CA        47.7720   19.9340   -4.5050 C.3    34  LEU34       0.1561
     42  C         46.6640   19.9670   -5.5430 C.2    34  LEU34       0.2260
     43  O         46.6810   19.1910   -6.5120 O.2    34  LEU34      -0.2867
     44  CB        47.2820   19.1080   -3.3180 C.3    34  LEU34       0.0270
     45  CG        48.2940   18.3280   -2.4810 C.3    34  LEU34       0.0019
     46  CD1       47.5920   17.6970   -1.2880 C.3    34  LEU34       0.0001
     47  CD2       48.9920   17.2620   -3.3110 C.3    34  LEU34       0.0001
     48  N         40.7310   23.6200   17.4810 N.3   106  PHE106     -0.1241
     49  CA        40.6280   22.2130   17.0680 C.3   106  PHE106      0.1605
     50  C         39.4300   22.0500   16.1590 C.2   106  PHE106      0.2264
     51  O         39.4970   21.3810   15.1310 O.2   106  PHE106     -0.2867
     52  CB        40.4440   21.2800   18.2800 C.3   106  PHE106      0.0534
     53  CG        41.7200   20.6850   18.7800 C.ar  106  PHE106     -0.0203
     54  CD1       42.5200   21.3720   19.7020 C.ar  106  PHE106     -0.0042
     55  CD2       42.1370   19.4380   18.3310 C.ar  106  PHE106     -0.0042
     56  CE1       43.7200   20.8130   20.1740 C.ar  106  PHE106     -0.0003
     57  CE2       43.3280   18.8680   18.7920 C.ar  106  PHE106     -0.0003
     58  CZ        44.1270   19.5520   19.7180 C.ar  106  PHE106     -0.0000
     59  N         40.3860   23.5470   12.6670 N.3   109  ILE109     -0.1245
     60  CA        41.2950   22.7510   11.8610 C.3   109  ILE109      0.1561
     61  C         40.6140   21.4940   11.3430 C.2   109  ILE109      0.2260
     62  O         40.7640   21.1660   10.1810 O.2   109  ILE109     -0.2867
     63  CB        42.6510   22.4540   12.5530 C.3   109  ILE109      0.0252
     64  CG1       43.6010   21.7510   11.5780 C.3   109  ILE109      0.0019
     65  CG2       42.4790   21.6350   13.8420 C.3   109  ILE109      0.0019
     66  CD1       43.8390   22.4630   10.2250 C.3   109  ILE109      0.0001
     67  N         40.1930   20.5560    7.3130 N.3   113  LEU113     -0.1245
     68  CA        40.7000   19.3320    6.6920 C.3   113  LEU113      0.1561
     69  C         39.6660   18.6880    5.7410 C.2   113  LEU113      0.2260
     70  O         40.0200   18.1480    4.6860 O.2   113  LEU113     -0.2867
     71  CB        41.1270   18.3650    7.8050 C.3   113  LEU113      0.0270
     72  CG        41.4750   16.9160    7.4870 C.3   113  LEU113      0.0019
     73  CD1       42.6910   16.8510    6.5940 C.3   113  LEU113      0.0001
     74  CD2       41.7200   16.1630    8.7840 C.3   113  LEU113      0.0001
     75  N         45.2970   14.0200   21.8990 N.3   161  ALA161     -0.1245
     76  CA        45.1810   15.2330   21.0880 C.3   161  ALA161      0.1562
     77  C         44.2810   15.1150   19.8480 C.2   161  ALA161      0.2260
     78  O         44.3110   15.9690   18.9780 O.2   161  ALA161     -0.2867
     79  CB        46.5530   15.7080   20.7010 C.3   161  ALA161      0.0290
     80  N         39.5470   14.4760   15.7570 N.3   166  VAL166     -0.1231
     81  CA        40.0070   15.2360   14.6010 C.3   166  VAL166      0.1692
     82  C         40.1820   14.3560   13.3650 C.2   166  VAL166      0.2592
     83  O         39.4800   14.5200   12.3720 O.2   166  VAL166     -0.2718
     84  CB        41.3520   15.9270   14.9110 C.3   166  VAL166      0.0266
     85  CG1       41.8870   16.6520   13.6730 C.3   166  VAL166      0.0020
     86  CG2       41.2100   16.8570   16.1100 C.3   166  VAL166      0.0020
     87  N         41.1060   13.4040   13.4550 N.am  167  HIS167     -0.1976
     88  CA        41.6220   12.6970   12.2900 C.3   167  HIS167      0.1656
     89  C         40.7190   11.6610   11.6960 C.2   167  HIS167      0.2291
     90  O         40.4270   11.7200   10.5070 O.2   167  HIS167     -0.2864
     91  CB        43.0340   12.1940   12.5760 C.3   167  HIS167      0.0771
     92  CG        43.9740   13.3210   12.8210 C.ar  167  HIS167      0.0820
     93  ND1       44.5050   14.0670   11.7930 N.ar  167  HIS167     -0.2267
     94  CD2       44.3580   13.9310   13.9650 C.ar  167  HIS167      0.1154
     95  CE1       45.2260   15.0520   12.2940 C.ar  167  HIS167      0.1986
     96  NE2       45.1530   14.9930   13.6110 N.ar  167  HIS167     -0.2212
     97  N         51.7280   23.5020    9.0870 N.3   195  LEU195     -0.1245
     98  CA        51.0220   22.4420    9.8230 C.3   195  LEU195      0.1561
     99  C         51.8910   21.8320   10.9420 C.2   195  LEU195      0.2260
    100  O         51.4390   21.6540   12.0710 O.2   195  LEU195     -0.2867
    101  CB        50.5080   21.3650    8.8600 C.3   195  LEU195      0.0270
    102  CG        49.3970   21.8550    7.9430 C.3   195  LEU195      0.0019
    103  CD1       49.0490   20.7680    6.9490 C.3   195  LEU195      0.0001
    104  CD2       48.1530   22.3230    8.7670 C.3   195  LEU195      0.0001
    105  N         51.3070   22.2620   14.8460 N.3   199  TRP199     -0.1241
    106  CA        50.9320   21.0170   15.5400 C.3   199  TRP199      0.1605
    107  C         51.5120   20.8770   16.9640 C.2   199  TRP199      0.2264
    108  O         50.9560   20.1350   17.7910 O.2   199  TRP199     -0.2867
    109  CB        51.3150   19.8010   14.6900 C.3   199  TRP199      0.0550
    110  CG        50.3450   18.6360   14.7130 C.ar  199  TRP199      0.0003
    111  CD1       49.8830   17.9570   15.8180 C.ar  199  TRP199      0.0946
    112  CD2       49.7530   17.9830   13.5690 C.ar  199  TRP199      0.0152
    113  NE1       49.0330   16.9310   15.4250 N.ar  199  TRP199     -0.2442
    114  CE2       48.9450   16.9230   14.0580 C.ar  199  TRP199      0.0810
    115  CE3       49.8260   18.1910   12.1800 C.ar  199  TRP199      0.0012
    116  CZ2       48.2160   16.0830   13.2060 C.ar  199  TRP199      0.0191
    117  CZ3       49.0990   17.3430   11.3300 C.ar  199  TRP199      0.0001
    118  CH2       48.3070   16.3110   11.8490 C.ar  199  TRP199      0.0015
    119  N         48.9370   22.0260   19.1120 N.3   202  ALA202     -0.1231
    120  CA        47.8300   21.0830   19.2770 C.3   202  ALA202      0.1694
    121  C         48.1800   19.9600   20.2430 C.2   202  ALA202      0.2592
    122  O         47.3340   19.5340   21.0580 O.2   202  ALA202     -0.2718
    123  CB        47.3500   20.5250   17.9030 C.3   202  ALA202      0.0304
    124  N         49.4220   19.4850   20.1620 N.am  203  ASN203     -0.1974
    125  CA        49.8180   18.3190   20.9480 C.3   203  ASN203      0.1688
    126  C         50.2740   18.6570   22.3540 C.2   203  ASN203      0.2292
    127  O         49.8740   17.9900   23.3210 O.2   203  ASN203     -0.2864
    128  CB        50.8880   17.5050   20.2270 C.3   203  ASN203      0.1181
    129  CG        50.3320   16.7440   19.0820 C.2   203  ASN203      0.2629
    130  OD1       49.1230   16.8030   18.8200 O.2   203  ASN203     -0.2716
    131  ND2       51.1930   16.0100   18.3780 N.am  203  ASN203     -0.0877
    132  N         54.2530   14.0420    2.9820 N.3   250  SER250     -0.1217
    133  CA        53.2190   13.0890    3.4010 C.3   250  SER250      0.1889
    134  C         53.6740   12.3020    4.6220 C.2   250  SER250      0.2288
    135  O         52.8610   11.9960    5.5060 O.2   250  SER250     -0.2866
    136  CB        52.8290   12.1200    2.2680 C.3   250  SER250      0.2089
    137  OG        52.3250   12.7960    1.1240 O.3   250  SER250     -0.2183
    138  N         53.2110   14.2900    7.8570 N.3   253  ILE253     -0.1245
    139  CA        51.8150   14.2950    8.2400 C.3   253  ILE253      0.1561
    140  C         51.4180   12.9330    8.8540 C.2   253  ILE253      0.2260
    141  O         50.8110   12.8780    9.9400 O.2   253  ILE253     -0.2867
    142  CB        50.9310   14.6430    7.0360 C.3   253  ILE253      0.0252
    143  CG1       51.3070   16.0440    6.4970 C.3   253  ILE253      0.0019
    144  CG2       49.4330   14.4870    7.3830 C.3   253  ILE253      0.0019
    145  CD1       50.6510   17.2380    7.2420 C.3   253  ILE253      0.0001
    146  N         49.3640   11.8770   17.3490 N.3   260  THR260     -0.1218
    147  CA        48.3660   12.7680   17.9070 C.3   260  THR260      0.1862
    148  C         47.6830   12.1650   19.1520 C.2   260  THR260      0.2287
    149  O         47.8460   12.7080   20.2540 O.2   260  THR260     -0.2866
    150  CB        47.3810   13.2440   16.7950 C.3   260  THR260      0.1770
    151  OG1       48.0910   14.1040   15.9010 O.3   260  THR260     -0.2211
    152  CG2       46.1490   13.9700   17.3650 C.3   260  THR260      0.0375
    153  N         42.1230   13.8790   -2.0520 N.3   292  CYS292     -0.1235
    154  CA        43.4690   14.2570   -1.5810 C.3   292  CYS292      0.1677
    155  C         44.0180   13.2810   -0.5430 C.2   292  CYS292      0.2270
    156  O         44.7000   13.6820    0.4130 O.2   292  CYS292     -0.2867
    157  CB        43.4790   15.6840   -1.0360 C.3   292  CYS292      0.0956
    158  SG        42.7860   16.8580   -2.1850 S.3   292  CYS292     -0.0801
    159  N         42.8470   11.8760    1.9360 N.3   294  VAL294     -0.1245
    160  CA        42.5620   12.2900    3.3090 C.3   294  VAL294      0.1561
    161  C         42.3440   11.1030    4.2590 C.2   294  VAL294      0.2260
    162  O         42.8200   11.1220    5.3870 O.2   294  VAL294     -0.2867
    163  CB        41.4310   13.3920    3.3820 C.3   294  VAL294      0.0252
    164  CG1       40.0460   12.8350    3.0650 C.3   294  VAL294      0.0019
    165  CG2       41.4250   14.0820    4.7250 C.3   294  VAL294      0.0019
    166  N         45.7550    8.8980    4.7080 N.3   297  VAL297     -0.1231
    167  CA        46.7150    9.3350    5.7000 C.3   297  VAL297      0.1692
    168  C         46.0200    9.5300    7.0460 C.2   297  VAL297      0.2592
    169  O         46.3130    8.8100    7.9920 O.2   297  VAL297     -0.2718
    170  CB        47.4800   10.5900    5.2390 C.3   297  VAL297      0.0266
    171  CG1       48.5200   11.0000    6.2780 C.3   297  VAL297      0.0020
    172  CG2       48.1580   10.3300    3.9080 C.3   297  VAL297      0.0020
    173  N         45.0770   10.4620    7.1210 N.am  298  HIS298     -0.1976
    174  CA        44.3680   10.7210    8.3750 C.3   298  HIS298      0.1656
    175  C         43.6010    9.5400    8.9440 C.2   298  HIS298      0.2291
    176  O         43.7060    9.2540   10.1270 O.2   298  HIS298     -0.2864
    177  CB        43.4500   11.9280    8.2390 C.3   298  HIS298      0.0771
    178  CG        44.2020   13.1980    8.0490 C.ar  298  HIS298      0.0820
    179  ND1       44.3510   14.1300    9.0520 N.ar  298  HIS298     -0.2267
    180  CD2       44.9010   13.6650    6.9910 C.ar  298  HIS298      0.1154
    181  CE1       45.0860   15.1320    8.6110 C.ar  298  HIS298      0.1986
    182  NE2       45.4340   14.8740    7.3650 N.ar  298  HIS298     -0.2212
@<TRIPOS>BOND
     1    43    42    2
     2    42    41    1
     3    41    40    1
     4    41    44    1
     5    44    45    1
     6    47    45    1
     7    31    30    2
     8    45    46    1
     9   158   157    1
    10   153   154    1
    11    30    29    1
    12   154   157    1
    13   154   155    1
    14   155   156    2
    15    20    19    2
    16    29    32    1
    17    29    28    1
    18    32    33    1
    19    34    33   ar
    20    34    36   ar
    21    19    28   am
    22    19    18    1
    23    33    35   ar
    24   137   136    1
    25    36    38   ar
    26    18    17    1
    27    18    21    1
    28   159   160    1
    29    35    37   ar
    30    26    24   ar
    31    26    27   ar
    32   136   133    1
    33    24    22   ar
    34    27    25   ar
    35    38    37   ar
    36    38    39    1
    37    22    21    1
    38    22    23   ar
    39   132   133    1
    40    25    23   ar
    41   164   163    1
    42    12    11    2
    43   160   163    1
    44   160   161    1
    45   163   165    1
    46   133   134    1
    47   172   170    1
    48   161   162    2
    49    11    10    1
    50   134   135    2
    51    70    69    2
    52   166   167    1
    53   170   167    1
    54   170   171    1
    55    10    13    1
    56    10     9    1
    57   167   168    1
    58    69    68    1
    59    14    16    1
    60    14    13    1
    61    15    13    1
    62   143   142    1
    63   143   145    1
    64    73    72    1
    65    68    67    1
    66    68    71    1
    67   103   102    1
    68   180   182   ar
    69   180   178   ar
    70   142   144    1
    71   142   139    1
    72   168   173   am
    73   168   169    2
    74   173   174    1
    75   182   181   ar
    76    72    71    1
    77    72    74    1
    78   138   139    1
    79   102   104    1
    80   102   101    1
    81   178   177    1
    82   178   179   ar
    83   177   174    1
    84   139   140    1
    85   174   175    1
    86   181   179   ar
    87   140   141    2
    88   101    98    1
    89     4     3    2
    90   175   176    2
    91    97    98    1
    92    98    99    1
    93     3     2    1
    94    62    61    2
    95    66    64    1
    96    90    89    2
    97    99   100    2
    98     2     1    1
    99     2     5    1
   100   117   118   ar
   101   117   115   ar
   102    61    60    1
   103    64    63    1
   104    89    88    1
   105    93    95   ar
   106    93    92   ar
   107   118   116   ar
   108    60    63    1
   109    60    59    1
   110     5     6    2
   111   115   112   ar
   112    88    91    1
   113    88    87    1
   114    95    96   ar
   115    83    82    2
   116    63    65    1
   117    91    92    1
   118    92    94   ar
   119     8     7    1
   120     6     7    1
   121   116   114   ar
   122    82    87   am
   123    82    81    1
   124   112   114   ar
   125   112   110   ar
   126    96    94   ar
   127    85    84    1
   128   114   113   ar
   129    81    84    1
   130    81    80    1
   131   109   110    1
   132   109   106    1
   133   110   111   ar
   134   105   106    1
   135    84    86    1
   136    51    50    2
   137   113   111   ar
   138   106   107    1
   139   151   150    1
   140    50    49    1
   141   150   152    1
   142   150   147    1
   143   107   108    2
   144    49    48    1
   145    49    52    1
   146   146   147    1
   147   123   120    1
   148   147   148    1
   149    52    53    1
   150    55    53   ar
   151    55    57   ar
   152   131   129   am
   153    53    54   ar
   154    57    58   ar
   155   130   129    2
   156    78    77    2
   157   129   128    1
   158   119   120    1
   159   148   149    2
   160   120   121    1
   161    54    56   ar
   162    58    56   ar
   163    77    76    1
   164   124   121   am
   165   124   125    1
   166   128   125    1
   167   121   122    2
   168    79    76    1
   169   125   126    1
   170    76    75    1
   171   126   127    2
