@<TRIPOS>MOLECULE
tmp/3c1kA01.pdb
 195 192 0 0 0
SMALL
GASTEIGER

@<TRIPOS>ATOM
      1  N         22.2520   -7.0600   18.5820 N.3    69  HIS69      -0.1241
      2  CA        22.1090   -8.4550   18.1440 C.3    69  HIS69       0.1621
      3  C         21.4470   -8.5910   16.7650 C.2    69  HIS69       0.2264
      4  O         21.5550   -9.6200   16.1220 O.2    69  HIS69      -0.2867
      5  CB        21.4530   -9.3410   19.2100 C.3    69  HIS69       0.0745
      6  CG        19.9620   -9.2540   19.2750 C.ar   69  HIS69       0.0817
      7  ND1       19.3040   -8.4050   20.1390 N.ar   69  HIS69      -0.2268
      8  CD2       19.0000  -10.0030   18.6860 C.ar   69  HIS69       0.1154
      9  CE1       18.0040   -8.6430   20.0900 C.ar   69  HIS69       0.1986
     10  NE2       17.7900   -9.6070   19.2160 N.ar   69  HIS69      -0.2212
     11  N         25.8270  -11.2320   15.5820 N.3    73  TYR73      -0.1241
     12  CA        25.5840  -12.3070   16.5140 C.3    73  TYR73       0.1605
     13  C         26.3380  -13.5160   16.0000 C.2    73  TYR73       0.2264
     14  O         25.7610  -14.4020   15.3780 O.2    73  TYR73      -0.2867
     15  CB        24.0990  -12.6040   16.6510 C.3    73  TYR73       0.0534
     16  CG        23.7880  -13.4190   17.8700 C.ar   73  TYR73      -0.0201
     17  CD1       24.2130  -12.9950   19.1360 C.ar   73  TYR73      -0.0009
     18  CD2       23.0650  -14.6090   17.7790 C.ar   73  TYR73      -0.0009
     19  CE1       23.9250  -13.7330   20.2880 C.ar   73  TYR73       0.0417
     20  CE2       22.7670  -15.3560   18.9260 C.ar   73  TYR73       0.0417
     21  CZ        23.2040  -14.9070   20.1750 C.ar   73  TYR73       0.1957
     22  OH        22.9460  -15.6410   21.3040 O.3    73  TYR73      -0.2866
     23  N         25.1830  -17.1980   15.3400 N.3    76  TRP76      -0.1241
     24  CA        24.3080  -17.5150   14.2150 C.3    76  TRP76       0.1605
     25  C         24.9160  -16.9830   12.9240 C.2    76  TRP76       0.2264
     26  O         24.2070  -16.7220   11.9630 O.2    76  TRP76      -0.2867
     27  CB        22.9090  -16.9140   14.4330 C.3    76  TRP76       0.0550
     28  CG        22.1930  -17.4490   15.6510 C.ar   76  TRP76       0.0003
     29  CD1       22.5270  -18.5560   16.3820 C.ar   76  TRP76       0.0946
     30  CD2       21.0190  -16.9010   16.2730 C.ar   76  TRP76       0.0152
     31  NE1       21.6340  -18.7330   17.4190 N.ar   76  TRP76      -0.2442
     32  CE2       20.7010  -17.7320   17.3750 C.ar   76  TRP76       0.0810
     33  CE3       20.2030  -15.7900   16.0040 C.ar   76  TRP76       0.0012
     34  CZ2       19.6050  -17.4850   18.2130 C.ar   76  TRP76       0.0191
     35  CZ3       19.1090  -15.5460   16.8380 C.ar   76  TRP76       0.0001
     36  CH2       18.8240  -16.3930   17.9290 C.ar   76  TRP76       0.0015
     37  N         28.0320  -10.3650   23.3190 N.3   118  TRP118     -0.1241
     38  CA        27.2800  -11.4080   22.6090 C.3   118  TRP118      0.1605
     39  C         27.6400  -12.8020   23.0930 C.2   118  TRP118      0.2264
     40  O         26.8680  -13.7420   22.9200 O.2   118  TRP118     -0.2867
     41  CB        27.4850  -11.3330   21.0930 C.3   118  TRP118      0.0550
     42  CG        28.9140  -11.3040   20.6430 C.ar  118  TRP118      0.0003
     43  CD1       29.6490  -10.1920   20.3540 C.ar  118  TRP118      0.0946
     44  CD2       29.7760  -12.4330   20.3900 C.ar  118  TRP118      0.0152
     45  NE1       30.9080  -10.5510   19.9350 N.ar  118  TRP118     -0.2442
     46  CE2       31.0160  -11.9200   19.9500 C.ar  118  TRP118      0.0810
     47  CE3       29.6180  -13.8270   20.4850 C.ar  118  TRP118      0.0012
     48  CZ2       32.1040  -12.7530   19.6060 C.ar  118  TRP118      0.0191
     49  CZ3       30.6980  -14.6540   20.1390 C.ar  118  TRP118      0.0001
     50  CH2       31.9220  -14.1070   19.7080 C.ar  118  TRP118      0.0015
     51  N         27.8210  -13.8160   26.0750 N.3   120  GLU120     -0.1231
     52  CA        27.1710  -14.2710   27.2860 C.3   120  GLU120      0.1699
     53  C         25.6850  -14.0020   27.5530 C.2   120  GLU120      0.2592
     54  O         24.8680  -14.9210   27.5400 O.2   120  GLU120     -0.2718
     55  CB        28.0030  -13.7970   28.4820 C.3   120  GLU120      0.0402
     56  CG        27.5650  -14.3740   29.8240 C.3   120  GLU120      0.1161
     57  CD        28.1090  -13.5970   31.0150 C.2   120  GLU120      0.3649
     58  OE1       29.0710  -12.8000   30.8360 O.co2 120  GLU120     -0.2457
     59  OE2       27.5690  -13.7780   32.1320 O.co2 120  GLU120     -0.2457
     60  N         25.3360  -12.7500   27.8190 N.am  121  ASN121     -0.1960
     61  CA        23.9570  -12.4190   28.1630 C.3   121  ASN121      0.1819
     62  C         23.3480  -11.2260   27.4080 C.2   121  ASN121      0.2621
     63  O         22.3240  -10.6850   27.8240 O.2   121  ASN121     -0.2715
     64  CB        23.9050  -12.1500   29.6700 C.3   121  ASN121      0.1195
     65  CG        24.8870  -11.0540   30.0960 C.2   121  ASN121      0.2630
     66  OD1       25.6980  -10.5720   29.2910 O.2   121  ASN121     -0.2716
     67  ND2       24.8350  -10.6810   31.3650 N.am  121  ASN121     -0.0877
     68  N         23.9730  -10.8470   26.2950 N.am  122  LEU122     -0.1977
     69  CA        23.5270   -9.7080   25.4870 C.3   122  LEU122      0.1596
     70  C         23.6000   -8.3850   26.2670 C.2   122  LEU122      0.2287
     71  O         22.7250   -7.5260   26.1490 O.2   122  LEU122     -0.2864
     72  CB        22.1040   -9.9330   24.9200 C.3   122  LEU122      0.0297
     73  CG        21.9910  -11.0390   23.8620 C.3   122  LEU122      0.0022
     74  CD1       20.5870  -11.0230   23.2690 C.3   122  LEU122      0.0001
     75  CD2       23.0410  -10.8500   22.7680 C.3   122  LEU122      0.0001
     76  N          6.5980  -11.8700   15.2130 N.3   169  ASN169     -0.1240
     77  CA         5.6770  -12.9780   15.4060 C.3   169  ASN169      0.1653
     78  C          4.5680  -12.7210   16.4310 C.2   169  ASN169      0.2266
     79  O          4.7890  -12.0830   17.4710 O.2   169  ASN169     -0.2867
     80  CB         6.4720  -14.2340   15.7790 C.3   169  ASN169      0.1155
     81  CG         7.4170  -14.6530   14.6950 C.2   169  ASN169      0.2627
     82  OD1        7.3160  -14.1790   13.5790 O.2   169  ASN169     -0.2716
     83  ND2        8.3460  -15.5420   15.0060 N.am  169  ASN169     -0.0877
     84  N          4.7690  -17.6620   19.7040 N.3   172  GLU172     -0.1245
     85  CA         6.1050  -18.2450   19.8130 C.3   172  GLU172      0.1567
     86  C          6.2320  -19.4270   18.8550 C.2   172  GLU172      0.2260
     87  O          7.1910  -19.3870   18.0640 O.2   172  GLU172     -0.2867
     88  CB         6.3780  -18.7280   21.2360 C.3   172  GLU172      0.0388
     89  CG         7.8160  -19.2020   21.4130 C.3   172  GLU172      0.1160
     90  CD         8.0740  -19.8900   22.7340 C.2   172  GLU172      0.3649
     91  OE1        9.0170  -20.7030   22.7720 O.co2 172  GLU172     -0.2457
     92  OE2        7.3700  -19.6120   23.7380 O.co2 172  GLU172     -0.2457
     93  N         19.9680  -16.7820   33.4170 N.3   197  ILE197     -0.1245
     94  CA        20.8630  -15.8100   32.7970 C.3   197  ILE197      0.1561
     95  C         21.3050  -14.7470   33.8030 C.2   197  ILE197      0.2260
     96  O         20.5250  -14.2830   34.6300 O.2   197  ILE197     -0.2867
     97  CB        20.1810  -15.0870   31.5890 C.3   197  ILE197      0.0252
     98  CG1       19.5240  -16.1050   30.6440 C.3   197  ILE197      0.0019
     99  CG2       21.1970  -14.2080   30.8470 C.3   197  ILE197      0.0019
    100  CD1       20.4730  -16.9150   29.8170 C.3   197  ILE197      0.0001
    101  N          3.6210   -9.8820   25.2770 N.3   217  ASP217     -0.1225
    102  CA         5.0900   -9.8730   25.2420 C.3   217  ASP217      0.1805
    103  C          5.5390   -9.5490   23.8190 C.2   217  ASP217      0.2598
    104  O          4.7150   -9.3910   22.9260 O.2   217  ASP217     -0.2718
    105  CB         5.6170  -11.2750   25.6620 C.3   217  ASP217      0.1424
    106  CG         7.1500  -11.3520   25.8220 C.2   217  ASP217      0.3668
    107  OD1        7.6980  -12.4700   25.8090 O.co2 217  ASP217     -0.2456
    108  OD2        7.8220  -10.3250   25.9980 O.co2 217  ASP217     -0.2456
    109  N          6.8440   -9.3710   23.6490 N.am  218  ALA218     -0.1966
    110  CA         7.4810   -9.1130   22.3810 C.3   218  ALA218      0.1728
    111  C          7.9260  -10.5100   21.9110 C.2   218  ALA218      0.2616
    112  O          7.8030  -11.4680   22.6690 O.2   218  ALA218     -0.2715
    113  CB         8.6840   -8.2120   22.5850 C.3   218  ALA218      0.0334
    114  N          8.4310  -10.6320   20.6820 N.am  219  CYS219     -0.1954
    115  CA         8.8410  -11.9430   20.1400 C.3   219  CYS219      0.1843
    116  C          9.7800  -11.7330   18.9360 C.2   219  CYS219      0.2625
    117  O         10.1200  -10.6140   18.6200 O.2   219  CYS219     -0.2714
    118  CB         7.5700  -12.7450   19.7500 C.3   219  CYS219      0.0997
    119  SG         7.6210  -14.5800   19.7170 S.3   219  CYS219     -0.0797
    120  N         10.2470  -12.8210   18.3080 N.am  220  GLU220     -0.1977
    121  CA        11.1390  -12.7200   17.1490 C.3   220  GLU220      0.1602
    122  C         10.6010  -11.6760   16.1480 C.2   220  GLU220      0.2287
    123  O          9.3900  -11.5960   15.9440 O.2   220  GLU220     -0.2864
    124  CB        11.2620  -14.0980   16.4830 C.3   220  GLU220      0.0415
    125  CG        12.1340  -14.1360   15.2130 C.3   220  GLU220      0.1163
    126  CD        12.3560  -15.5640   14.7600 C.2   220  GLU220      0.3649
    127  OE1       12.5610  -15.8210   13.5420 O.co2 220  GLU220     -0.2457
    128  OE2       12.3390  -16.4620   15.6340 O.co2 220  GLU220     -0.2457
    129  N         12.6800   -7.6090   18.0630 N.3   223  SER223     -0.1217
    130  CA        13.9900   -7.1760   18.5730 C.3   223  SER223      0.1889
    131  C         14.4110   -5.8710   17.9540 C.2   223  SER223      0.2288
    132  O         14.2320   -5.6730   16.7670 O.2   223  SER223     -0.2866
    133  CB        15.0940   -8.1990   18.2320 C.3   223  SER223      0.2089
    134  OG        14.9120   -9.4500   18.8810 O.3   223  SER223     -0.2183
    135  N         13.9540   -3.4530   22.8720 N.3   243  VAL243     -0.1231
    136  CA        13.5180   -4.8460   22.9360 C.3   243  VAL243      0.1692
    137  C         14.7750   -5.6890   22.7060 C.2   243  VAL243      0.2593
    138  O         15.4160   -5.6000   21.6600 O.2   243  VAL243     -0.2718
    139  CB        12.4350   -5.1480   21.8500 C.3   243  VAL243      0.0266
    140  CG1       11.9340   -6.5950   21.9780 C.3   243  VAL243      0.0020
    141  CG2       11.2750   -4.1560   21.9580 C.3   243  VAL243      0.0020
    142  N         15.1060   -6.5250   23.6790 N.am  244  SER244     -0.1938
    143  CA        16.3210   -7.3160   23.5880 C.3   244  SER244      0.2055
    144  C         16.2060   -8.8240   23.4410 C.2   244  SER244      0.2643
    145  O         16.5140   -9.3780   22.3870 O.2   244  SER244     -0.2714
    146  CB        17.2230   -7.0070   24.7950 C.3   244  SER244      0.2130
    147  OG        18.5650   -7.4190   24.5650 O.3   244  SER244     -0.2179
    148  N         15.8040   -9.4940   24.5120 N.am  245  TRP245     -0.1959
    149  CA        15.7500  -10.9350   24.4830 C.3   245  TRP245      0.1771
    150  C         14.7420  -11.4900   25.4510 C.2   245  TRP245      0.2620
    151  O         14.2360  -10.8060   26.3380 O.2   245  TRP245     -0.2715
    152  CB        17.1500  -11.5140   24.7910 C.3   245  TRP245      0.0590
    153  CG        17.6430  -11.2290   26.2210 C.ar  245  TRP245      0.0006
    154  CD1       18.3050  -10.1030   26.6590 C.ar  245  TRP245      0.0946
    155  CD2       17.4230  -12.0400   27.3940 C.ar  245  TRP245      0.0152
    156  NE1       18.4830  -10.1580   28.0210 N.ar  245  TRP245     -0.2442
    157  CE2       17.9520  -11.3320   28.4990 C.ar  245  TRP245      0.0810
    158  CE3       16.8160  -13.2890   27.6210 C.ar  245  TRP245      0.0012
    159  CZ2       17.8940  -11.8350   29.8130 C.ar  245  TRP245      0.0191
    160  CZ3       16.7540  -13.7850   28.9330 C.ar  245  TRP245      0.0001
    161  CH2       17.2930  -13.0570   30.0050 C.ar  245  TRP245      0.0015
    162  N         14.4400  -12.7610   25.2510 N.am  246  GLY246     -0.1940
    163  CA        13.5040  -13.4450   26.1160 C.3   246  GLY246      0.2014
    164  C         13.6830  -14.9270   25.8780 C.2   246  GLY246      0.2639
    165  O         14.3740  -15.3390   24.9480 O.2   246  GLY246     -0.2714
    166  N         13.1250  -15.7200   26.7710 N.am  247  GLU247     -0.1963
    167  CA        13.1610  -17.1650   26.6650 C.3   247  GLU247      0.1733
    168  C         11.7340  -17.5150   26.2200 C.2   247  GLU247      0.2617
    169  O         10.8050  -17.5270   27.0210 O.2   247  GLU247     -0.2715
    170  CB        13.5050  -17.7410   28.0320 C.3   247  GLU247      0.0429
    171  CG        14.8240  -17.1580   28.5830 C.3   247  GLU247      0.1163
    172  CD        15.0200  -17.4320   30.0630 C.2   247  GLU247      0.3649
    173  OE1       15.4910  -18.5300   30.4030 O.co2 247  GLU247     -0.2457
    174  OE2       14.6700  -16.5720   30.9040 O.co2 247  GLU247     -0.2457
    175  N         11.5730  -17.7070   24.9120 N.am  248  GLY248     -0.1940
    176  CA        10.2690  -17.9840   24.3440 C.3   248  GLY248      0.2014
    177  C          9.5650  -16.6430   24.1940 C.2   248  GLY248      0.2639
    178  O         10.2360  -15.6250   24.1030 O.2   248  GLY248     -0.2714
    179  N          8.2380  -16.6420   24.2250 N.am  249  CYS249     -0.1967
    180  CA         7.4340  -15.4240   24.1100 C.3   249  CYS249      0.1712
    181  C          6.1520  -15.6660   24.8830 C.2   249  CYS249      0.2296
    182  O          5.5330  -16.7120   24.7480 O.2   249  CYS249     -0.2864
    183  CB         7.0620  -15.1360   22.6520 C.3   249  CYS249      0.0983
    184  SG         8.4500  -15.1520   21.4920 S.3   249  CYS249     -0.0798
    185  N          5.5590  -16.6580   27.7910 N.3   251  ARG251     -0.1245
    186  CA         5.5340  -17.8360   28.6540 C.3   251  ARG251      0.1563
    187  C          5.2420  -17.4020   30.0750 C.2   251  ARG251      0.2260
    188  O          5.7490  -16.3740   30.4980 O.2   251  ARG251     -0.2867
    189  CB         6.8810  -18.5300   28.6250 C.3   251  ARG251      0.0307
    190  CG         7.2710  -19.0740   27.2830 C.3   251  ARG251      0.0489
    191  CD         8.3060  -20.1420   27.4770 C.3   251  ARG251      0.2205
    192  NE         8.8830  -20.5780   26.2190 N.pl3 251  ARG251     -0.0865
    193  CZ         9.8490  -21.4830   26.1230 C.cat 251  ARG251      0.5346
    194  NH1       10.3440  -22.0590   27.2160 N.pl3 251  ARG251      0.1354
    195  NH2       10.3850  -21.7450   24.9380 N.pl3 251  ARG251      0.1354
@<TRIPOS>BOND
     1    26    25    2
     2    25    24    1
     3   127   126   ar
     4    82    81    2
     5    24    27    1
     6    24    23    1
     7    27    28    1
     8    81    83   am
     9    81    80    1
    10   126   125    1
    11   126   128   ar
    12    76    77    1
    13   125   124    1
    14    14    13    2
    15    77    80    1
    16    77    78    1
    17    11    12    1
    18    28    30   ar
    19    28    29   ar
    20   123   122    2
    21    13    12    1
    22    33    30   ar
    23    33    35   ar
    24     4     3    2
    25   122   121    1
    26    30    32   ar
    27    29    31   ar
    28    78    79    2
    29   124   121    1
    30    12    15    1
    31    15    16    1
    32     3     2    1
    33   132   131    2
    34    35    36   ar
    35   121   120    1
    36    32    31   ar
    37    32    34   ar
    38    18    16   ar
    39    18    20   ar
    40    16    17   ar
    41    36    34   ar
    42   131   130    1
    43   129   130    1
    44    87    86    2
    45     2     1    1
    46     2     5    1
    47   133   130    1
    48   133   134    1
    49   120   116   am
    50   117   116    2
    51     8    10   ar
    52     8     6   ar
    53    86    85    1
    54    20    21   ar
    55   116   115    1
    56    17    19   ar
    57     5     6    1
    58    10     9   ar
    59     6     7   ar
    60    48    50   ar
    61    48    46   ar
    62    84    85    1
    63    50    49   ar
    64   119   118    1
    65   119   184    1
    66   118   115    1
    67    85    88    1
    68    45    46   ar
    69    45    43   ar
    70    46    44   ar
    71     9     7   ar
    72    49    47   ar
    73   115   114    1
    74    21    19   ar
    75    21    22    1
    76    43    42   ar
    77    44    47   ar
    78    44    42   ar
    79    42    41    1
    80   114   111   am
    81    41    38    1
    82    88    89    1
    83    89    90    1
    84   184   183    1
    85   138   137    2
    86   139   141    1
    87   139   140    1
    88   139   136    1
    89   111   110    1
    90   111   112    2
    91   110   113    1
    92   110   109    1
    93   145   144    2
    94    38    39    1
    95    38    37    1
    96   183   180    1
    97   137   136    1
    98   137   142   am
    99    90    91   ar
   100    90    92   ar
   101    75    73    1
   102   135   136    1
   103    40    39    2
   104   104   103    2
   105    74    73    1
   106   144   143    1
   107   144   148   am
   108   143   142    1
   109   143   146    1
   110   109   103   am
   111   103   102    1
   112    73    72    1
   113   178   177    2
   114   180   179    1
   115   180   181    1
   116   177   179   am
   117   177   176    1
   118   176   175    1
   119   149   148    1
   120   149   152    1
   121   149   150    1
   122   147   146    1
   123   182   181    2
   124   152   153    1
   125   175   168   am
   126    72    69    1
   127   195   193    1
   128   165   164    2
   129   102   101    1
   130   102   105    1
   131   162   150   am
   132   162   163    1
   133   150   151    2
   134    69    70    1
   135    69    68    1
   136   105   106    1
   137   107   106   ar
   138   106   108   ar
   139   164   163    1
   140   164   166   am
   141    51    52    1
   142   193   192    2
   143   193   194    1
   144    71    70    2
   145   192   191    1
   146   168   167    1
   147   168   169    2
   148   153   154   ar
   149   153   155   ar
   150    68    62   am
   151   154   156   ar
   152   167   166    1
   153   167   170    1
   154   190   191    1
   155   190   189    1
   156    52    53    1
   157    52    55    1
   158   155   158   ar
   159   155   157   ar
   160    62    63    2
   161    62    61    1
   162    54    53    2
   163    53    60   am
   164   158   160   ar
   165   185   186    1
   166    60    61    1
   167   156   157   ar
   168   170   171    1
   169    61    64    1
   170    55    56    1
   171   157   159   ar
   172   171   172    1
   173   189   186    1
   174   186   187    1
   175   160   161   ar
   176    66    65    2
   177    64    65    1
   178   159   161   ar
   179   100    98    1
   180    56    57    1
   181   172   173   ar
   182   172   174   ar
   183   187   188    2
   184    65    67   am
   185    98    97    1
   186    58    57   ar
   187    99    97    1
   188    57    59   ar
   189    97    94    1
   190    94    93    1
   191    94    95    1
   192    95    96    2
