@<TRIPOS>MOLECULE
tmp/3c1kA00.pdb
 171 162 0 0 0
SMALL
GASTEIGER

@<TRIPOS>ATOM
      1  N         11.7270   -0.0010   10.4880 N.3    43  MET43      -0.1245
      2  CA        11.8450   -1.4010   10.1170 C.3    43  MET43       0.1570
      3  C         13.2030   -1.6000    9.4960 C.2    43  MET43       0.2261
      4  O         13.5930   -0.8250    8.6320 O.2    43  MET43      -0.2867
      5  CB        10.7810   -1.7970    9.0850 C.3    43  MET43       0.0387
      6  CG        10.9300   -3.2420    8.5870 C.3    43  MET43       0.0595
      7  SD         9.8100   -3.7040    7.2050 S.3    43  MET43      -0.1393
      8  CE         8.3670   -3.9310    8.0940 C.3    43  MET43       0.0692
      9  N         15.3140   -3.7220    7.0940 N.3    45  PHE45      -0.1241
     10  CA        14.9720   -4.5730    5.9730 C.3    45  PHE45       0.1605
     11  C         16.1890   -5.0610    5.2070 C.2    45  PHE45       0.2264
     12  O         17.0220   -4.2810    4.7490 O.2    45  PHE45      -0.2867
     13  CB        14.0350   -3.7580    5.0550 C.3    45  PHE45       0.0534
     14  CG        13.3770   -4.5640    3.9620 C.ar   45  PHE45      -0.0203
     15  CD1       12.3270   -5.4370    4.2560 C.ar   45  PHE45      -0.0042
     16  CD2       13.8240   -4.4650    2.6350 C.ar   45  PHE45      -0.0042
     17  CE1       11.7390   -6.2020    3.2380 C.ar   45  PHE45      -0.0003
     18  CE2       13.2420   -5.2240    1.6150 C.ar   45  PHE45      -0.0003
     19  CZ        12.2010   -6.0900    1.9210 C.ar   45  PHE45      -0.0000
     20  N         18.0660   -6.5800    2.0380 N.3    47  LYS47      -0.1231
     21  CA        17.8870   -6.5230    0.5930 C.3    47  LYS47       0.1693
     22  C         17.7550   -7.9030   -0.0780 C.2    47  LYS47       0.2592
     23  O         16.8380   -8.1190   -0.8680 O.2    47  LYS47      -0.2718
     24  CB        19.0450   -5.7720   -0.0680 C.3    47  LYS47       0.0285
     25  CG        19.2590   -4.3350    0.3690 C.3    47  LYS47       0.0035
     26  CD        20.5020   -3.8010   -0.3390 C.3    47  LYS47       0.0206
     27  CE        20.7820   -2.3480   -0.0230 C.3    47  LYS47       0.1093
     28  NZ        21.8790   -1.8410   -0.8950 N.3    47  LYS47      -0.1314
     29  N         18.6690   -8.8260    0.2170 N.am   48  SER48      -0.1952
     30  CA        18.6300  -10.1360   -0.4220 C.3    48  SER48       0.1924
     31  C         18.9230  -11.3130    0.4950 C.2    48  SER48       0.2314
     32  O         20.0510  -11.4900    0.9400 O.2    48  SER48      -0.2863
     33  CB        19.6020  -10.1660   -1.6010 C.3    48  SER48       0.2116
     34  OG        19.2830   -9.1780   -2.5660 O.3    48  SER48      -0.2180
     35  N         14.7460  -10.2770    0.4850 N.3    50  GLN50      -0.1231
     36  CA        13.9740   -9.1710    1.0180 C.3    50  GLN50       0.1698
     37  C         13.2440   -9.7340    2.2260 C.2    50  GLN50       0.2592
     38  O         12.3490  -10.5580    2.0740 O.2    50  GLN50      -0.2718
     39  CB        12.9570   -8.6940   -0.0260 C.3    50  GLN50       0.0381
     40  CG        13.5510   -8.4170   -1.4100 C.3    50  GLN50       0.0905
     41  CD        13.6210   -6.9340   -1.7430 C.2    50  GLN50       0.2608
     42  OE1       12.6020   -6.2480   -1.7750 O.2    50  GLN50      -0.2717
     43  NE2       14.8270   -6.4380   -2.0110 N.am   50  GLN50      -0.0878
     44  N         13.6560   -9.3400    3.4270 N.am   51  GLU51      -0.1966
     45  CA        13.0100   -9.8340    4.6410 C.3    51  GLU51       0.1733
     46  C         13.1560   -8.8950    5.8190 C.2    51  GLU51       0.2616
     47  O         14.0410   -8.0510    5.8620 O.2    51  GLU51      -0.2715
     48  CB        13.5600  -11.2080    5.0280 C.3    51  GLU51       0.0429
     49  CG        15.0790  -11.2500    5.1980 C.3    51  GLU51       0.1163
     50  CD        15.5930  -12.5970    5.6850 C.2    51  GLU51       0.3649
     51  OE1       16.7980  -12.8820    5.4780 O.co2  51  GLU51      -0.2457
     52  OE2       14.8030  -13.3620    6.2870 O.co2  51  GLU51      -0.2457
     53  N         12.2230   -9.0220    6.7490 N.am   52  LEU52      -0.1977
     54  CA        12.2270   -8.2180    7.9610 C.3    52  LEU52       0.1596
     55  C         13.3310   -8.7460    8.8790 C.2    52  LEU52       0.2287
     56  O         13.4000   -9.9440    9.1390 O.2    52  LEU52      -0.2864
     57  CB        10.8620   -8.3090    8.6700 C.3    52  LEU52       0.0297
     58  CG        10.6870   -7.7890   10.1040 C.3    52  LEU52       0.0022
     59  CD1       10.7190   -6.2760   10.1810 C.3    52  LEU52       0.0001
     60  CD2        9.3840   -8.2990   10.6640 C.3    52  LEU52       0.0001
     61  N         25.9610   -2.0720    3.4080 N.3    83  ASN83      -0.1240
     62  CA        25.3670   -2.4280    2.1230 C.3    83  ASN83       0.1653
     63  C         24.4330   -3.6380    2.0700 C.2    83  ASN83       0.2266
     64  O         23.9550   -4.0060    0.9950 O.2    83  ASN83      -0.2867
     65  CB        26.4680   -2.5420    1.0680 C.3    83  ASN83       0.1155
     66  CG        27.0940   -1.1870    0.7420 C.2    83  ASN83       0.2627
     67  OD1       27.9390   -0.6850    1.4790 O.2    83  ASN83      -0.2716
     68  ND2       26.6440   -0.5750   -0.3530 N.am   83  ASN83      -0.0877
     69  N         18.4340   -1.9170    4.5230 N.3    86  LEU86      -0.1245
     70  CA        17.7160   -0.6920    4.2790 C.3    86  LEU86       0.1561
     71  C         16.8910   -0.3890    5.5280 C.2    86  LEU86       0.2260
     72  O         16.4970   -1.2910    6.2570 O.2    86  LEU86      -0.2867
     73  CB        16.7940   -0.8440    3.0570 C.3    86  LEU86       0.0270
     74  CG        17.4370   -0.8650    1.6650 C.3    86  LEU86       0.0019
     75  CD1       16.3750   -1.1930    0.6290 C.3    86  LEU86       0.0001
     76  CD2       18.0810    0.4640    1.3280 C.3    86  LEU86       0.0001
     77  N         13.4260    1.3920    6.7680 N.3    88  ARG88      -0.1245
     78  CA        12.1100    1.7810    6.2830 C.3    88  ARG88       0.1563
     79  C         11.3130    2.4930    7.3800 C.2    88  ARG88       0.2260
     80  O         10.8520    1.8950    8.3550 O.2    88  ARG88      -0.2867
     81  CB        11.4050    0.5590    5.7130 C.3    88  ARG88       0.0307
     82  CG        12.2460   -0.0370    4.5700 C.3    88  ARG88       0.0489
     83  CD        11.6160   -1.2270    3.8920 C.3    88  ARG88       0.2205
     84  NE        10.2830   -0.9260    3.3770 N.pl3  88  ARG88      -0.0865
     85  CZ         9.5320   -1.7720    2.6770 C.cat  88  ARG88       0.5346
     86  NH1        9.9800   -2.9890    2.3920 N.pl3  88  ARG88       0.1354
     87  NH2        8.3240   -1.3990    2.2860 N.pl3  88  ARG88       0.1354
     88  N          3.3050   -4.3420    7.3220 N.3    94  ARG94      -0.1231
     89  CA         4.5460   -5.1110    7.3940 C.3    94  ARG94       0.1694
     90  C          5.1580   -5.3450    6.0110 C.2    94  ARG94       0.2593
     91  O          6.2610   -4.8890    5.7190 O.2    94  ARG94      -0.2718
     92  CB         4.2910   -6.4690    8.0920 C.3    94  ARG94       0.0321
     93  CG         5.4970   -7.4250    8.1350 C.3    94  ARG94       0.0489
     94  CD         5.2230   -8.6990    8.9390 C.3    94  ARG94       0.2205
     95  NE         4.1570   -9.5360    8.3700 N.pl3  94  ARG94      -0.0865
     96  CZ         4.3020  -10.3730    7.3340 C.cat  94  ARG94       0.5346
     97  NH1        5.4760  -10.5200    6.7330 N.pl3  94  ARG94       0.1354
     98  NH2        3.2430  -11.0180    6.8540 N.pl3  94  ARG94       0.1354
     99  N          4.3750   -5.9590    5.1260 N.am   95  THR95      -0.1939
    100  CA         4.8510   -6.3260    3.7840 C.3    95  THR95       0.2028
    101  C          4.6730   -5.3960    2.5830 C.2    95  THR95       0.2642
    102  O          5.4250   -5.4770    1.6310 O.2    95  THR95      -0.2714
    103  CB         4.2870   -7.6980    3.4080 C.3    95  THR95       0.1808
    104  OG1        2.8640   -7.6970    3.5910 O.3    95  THR95      -0.2208
    105  CG2        4.8720   -8.7560    4.3050 C.3    95  THR95       0.0379
    106  N          3.6930   -4.5060    2.6240 N.am   96  ARG96      -0.1963
    107  CA         3.4330   -3.6270    1.4880 C.3    96  ARG96       0.1729
    108  C          4.3190   -2.4050    1.3620 C.2    96  ARG96       0.2616
    109  O          4.7980   -1.8740    2.3630 O.2    96  ARG96      -0.2715
    110  CB         1.9590   -3.2260    1.4950 C.3    96  ARG96       0.0348
    111  CG         1.0490   -4.4500    1.6160 C.3    96  ARG96       0.0492
    112  CD         1.4590   -5.4940    0.5820 C.3    96  ARG96       0.2205
    113  NE         1.2800   -6.8650    1.0420 N.pl3  96  ARG96      -0.0865
    114  CZ         1.9830   -7.8960    0.5780 C.cat  96  ARG96       0.5346
    115  NH1        2.8970   -7.6990   -0.3640 N.pl3  96  ARG96       0.1354
    116  NH2        1.8320   -9.1060    1.1140 N.pl3  96  ARG96       0.1354
    117  N          4.5760   -1.9860    0.1260 N.am   97  TYR97      -0.1974
    118  CA         5.3870   -0.7990   -0.0960 C.3    97  TYR97       0.1639
    119  C          4.4130    0.3680   -0.0660 C.2    97  TYR97       0.2290
    120  O          3.7560    0.6680   -1.0590 O.2    97  TYR97      -0.2864
    121  CB         6.1120   -0.8440   -1.4350 C.3    97  TYR97       0.0560
    122  CG         6.7640    0.4750   -1.7590 C.ar   97  TYR97      -0.0198
    123  CD1        7.8470    0.9350   -1.0180 C.ar   97  TYR97      -0.0009
    124  CD2        6.2470    1.3020   -2.7560 C.ar   97  TYR97      -0.0009
    125  CE1        8.3970    2.1930   -1.2550 C.ar   97  TYR97       0.0417
    126  CE2        6.7870    2.5620   -3.0020 C.ar   97  TYR97       0.0417
    127  CZ         7.8590    3.0020   -2.2480 C.ar   97  TYR97       0.1957
    128  OH         8.3880    4.2480   -2.4790 O.3    97  TYR97      -0.2866
    129  N          5.8120    5.8350    3.3060 N.3   102  GLU102     -0.1231
    130  CA         7.0990    5.4250    3.8860 C.3   102  GLU102      0.1699
    131  C          8.2920    6.0230    3.1510 C.2   102  GLU102      0.2592
    132  O          8.1440    6.6250    2.0960 O.2   102  GLU102     -0.2718
    133  CB         7.2290    3.8950    3.9310 C.3   102  GLU102      0.0402
    134  CG         7.4340    3.2070    2.5800 C.3   102  GLU102      0.1161
    135  CD         7.8100    1.7490    2.7270 C.2   102  GLU102      0.3649
    136  OE1        6.9120    0.8740    2.7430 O.co2 102  GLU102     -0.2457
    137  OE2        9.0150    1.4590    2.8350 O.co2 102  GLU102     -0.2457
    138  N          9.4480    5.9550    3.7890 N.am  103  LYS103     -0.1966
    139  CA        10.6930    6.4330    3.2120 C.3   103  LYS103      0.1728
    140  C         11.7290    5.3240    3.4410 C.2   103  LYS103      0.2616
    141  O         11.7270    4.6670    4.4880 O.2   103  LYS103     -0.2715
    142  CB        11.1330    7.7290    3.8790 C.3   103  LYS103      0.0311
    143  CG        10.1640    8.8780    3.6640 C.3   103  LYS103      0.0038
    144  CD        10.2160    9.3970    2.2200 C.3   103  LYS103      0.0206
    145  CE         8.9700   10.2030    1.8540 C.3   103  LYS103      0.1093
    146  NZ         7.8410    9.3010    1.4910 N.3   103  LYS103     -0.1314
    147  N         12.5630    5.0880    2.4330 N.am  104  ILE104     -0.1977
    148  CA        13.5870    4.0630    2.4780 C.3   104  ILE104      0.1596
    149  C         14.9690    4.7130    2.4810 C.2   104  ILE104      0.2287
    150  O         15.2810    5.5160    1.6070 O.2   104  ILE104     -0.2864
    151  CB        13.4410    3.1140    1.2630 C.3   104  ILE104      0.0276
    152  CG1       12.0690    2.4310    1.3000 C.3   104  ILE104      0.0022
    153  CG2       14.5490    2.0750    1.2580 C.3   104  ILE104      0.0022
    154  CD1       11.8730    1.3350    0.2500 C.3   104  ILE104      0.0001
    155  N         19.4220    4.3160    3.0850 N.3   106  MET106     -0.1245
    156  CA        20.6200    3.4910    2.9970 C.3   106  MET106      0.1570
    157  C         21.5110    4.0020    4.1110 C.2   106  MET106      0.2261
    158  O         21.4680    5.1810    4.4440 O.2   106  MET106     -0.2867
    159  CB        21.3430    3.7230    1.6720 C.3   106  MET106      0.0387
    160  CG        20.8010    2.9580    0.4860 C.3   106  MET106      0.0595
    161  SD        21.7550    3.3330   -1.0010 S.3   106  MET106     -0.1393
    162  CE        20.4150    3.8400   -2.1060 C.3   106  MET106      0.0692
    163  N          2.6790  -13.8050   11.0460 N.3   174  GLN174     -0.1245
    164  CA         3.1760  -12.4760   11.3380 C.3   174  GLN174      0.1566
    165  C          1.9440  -11.5980   11.0970 C.2   174  GLN174      0.2260
    166  O          1.0800  -11.9530   10.2990 O.2   174  GLN174     -0.2867
    167  CB         4.3110  -12.1040   10.3810 C.3   174  GLN174      0.0367
    168  CG         5.3560  -13.2000   10.1710 C.3   174  GLN174      0.0905
    169  CD         5.0120  -14.1310    9.0140 C.2   174  GLN174      0.2608
    170  OE1        4.2410  -15.0770    9.1740 O.2   174  GLN174     -0.2717
    171  NE2        5.5720  -13.8570    7.8390 N.am  174  GLN174     -0.0878
@<TRIPOS>BOND
     1   126   124   ar
     2   126   127   ar
     3   124   122   ar
     4    34    33    1
     5   128   127    1
     6   127   125   ar
     7   162   161    1
     8    43    41   am
     9    42    41    2
    10   122   121    1
    11   122   123   ar
    12    41    40    1
    13    33    30    1
    14   121   118    1
    15    40    39    1
    16   125   123   ar
    17   120   119    2
    18   161   160    1
    19    28    27    1
    20    23    22    2
    21    30    29    1
    22    30    31    1
    23   115   114    1
    24    68    66   am
    25    26    27    1
    26    26    25    1
    27   118   119    1
    28   118   117    1
    29    22    29   am
    30    22    21    1
    31    24    25    1
    32    24    21    1
    33    39    36    1
    34   117   108   am
    35   154   152    1
    36    35    36    1
    37   160   159    1
    38    31    32    2
    39   114   113    2
    40   114   116    1
    41   112   113    1
    42   112   111    1
    43    21    20    1
    44    75    74    1
    45    66    65    1
    46    66    67    2
    47    64    63    2
    48    36    37    1
    49    65    62    1
    50   153   151    1
    51   151   152    1
    52   151   148    1
    53    76    74    1
    54   108   107    1
    55   108   109    2
    56   107   110    1
    57   107   106    1
    58   146   145    1
    59   110   111    1
    60   150   149    2
    61    18    19   ar
    62    18    16   ar
    63   102   101    2
    64    74    73    1
    65   159   156    1
    66   145   144    1
    67    19    17   ar
    68    63    62    1
    69    38    37    2
    70   132   131    2
    71    62    61    1
    72   144   143    1
    73    37    44   am
    74    87    85    1
    75    86    85    1
    76   147   148    1
    77   147   140   am
    78   148   149    1
    79   134   135    1
    80   134   133    1
    81   101   106   am
    82   101   100    1
    83    16    14   ar
    84    85    84    2
    85   135   136   ar
    86   135   137   ar
    87   156   155    1
    88   156   157    1
    89    73    70    1
    90   131   138   am
    91   131   130    1
    92   139   140    1
    93   139   138    1
    94   139   142    1
    95    17    15   ar
    96   129   130    1
    97    84    83    1
    98   103   104    1
    99   103   100    1
   100   103   105    1
   101    44    45    1
   102   140   141    2
   103   143   142    1
   104   100    99    1
   105   130   133    1
   106    83    82    1
   107    14    15   ar
   108    14    13    1
   109   157   158    2
   110    70    69    1
   111    70    71    1
   112    82    81    1
   113    45    48    1
   114    45    46    1
   115    12    11    2
   116    48    49    1
   117    13    10    1
   118    99    90   am
   119    49    50    1
   120    11    10    1
   121    51    50   ar
   122    71    72    2
   123    50    52   ar
   124    81    78    1
   125    91    90    2
   126    46    47    2
   127    46    53   am
   128    10     9    1
   129    90    89    1
   130    78    77    1
   131    78    79    1
   132    97    96    1
   133    53    54    1
   134    98    96    1
   135     7     8    1
   136     7     6    1
   137    88    89    1
   138    96    95    2
   139    79    80    2
   140    89    92    1
   141   171   169   am
   142    54    57    1
   143    54    55    1
   144    92    93    1
   145    93    94    1
   146    95    94    1
   147     6     5    1
   148     4     3    2
   149    57    58    1
   150    55    56    2
   151   169   170    2
   152   169   168    1
   153     5     2    1
   154     3     2    1
   155    58    59    1
   156    58    60    1
   157     2     1    1
   158   168   167    1
   159   166   165    2
   160   167   164    1
   161   163   164    1
   162   165   164    1
