@<TRIPOS>MOLECULE
tmp/3c1lB02.pdb
 125 122 0 0 0
SMALL
GASTEIGER

@<TRIPOS>ATOM
      1  N         33.9250   47.1310   50.3250 N.3    20  TYR20      -0.1241
      2  CA        34.0170   45.7930   49.8200 C.3    20  TYR20       0.1605
      3  C         33.6890   45.7110   48.3290 C.2    20  TYR20       0.2264
      4  O         34.3460   44.9890   47.5660 O.2    20  TYR20      -0.2867
      5  CB        33.0340   44.8910   50.5690 C.3    20  TYR20       0.0534
      6  CG        33.0850   43.4730   50.0690 C.ar   20  TYR20      -0.0201
      7  CD1       34.1960   42.6630   50.3110 C.ar   20  TYR20      -0.0009
      8  CD2       32.0430   42.9500   49.2960 C.ar   20  TYR20      -0.0009
      9  CE1       34.2410   41.3680   49.8220 C.ar   20  TYR20       0.0417
     10  CE2       32.0910   41.6820   48.8200 C.ar   20  TYR20       0.0417
     11  CZ        33.1840   40.9040   49.0860 C.ar   20  TYR20       0.1957
     12  OH        33.1970   39.6510   48.5970 O.3    20  TYR20      -0.2866
     13  N         35.6160   44.6170   44.8190 N.3    24  CYS24      -0.1235
     14  CA        35.0470   43.8300   43.7350 C.3    24  CYS24       0.1677
     15  C         35.2350   44.5630   42.4340 C.2    24  CYS24       0.2270
     16  O         35.7660   44.0270   41.4800 O.2    24  CYS24      -0.2867
     17  CB        33.5560   43.6410   43.9190 C.3    24  CYS24       0.0956
     18  SG        33.1190   42.4990   45.1890 S.3    24  CYS24      -0.0801
     19  N         37.3420   42.6000   39.8410 N.3    28  LEU28      -0.1245
     20  CA        36.5760   42.0170   38.7390 C.3    28  LEU28       0.1561
     21  C         36.0520   43.0020   37.6950 C.2    28  LEU28       0.2260
     22  O         35.5610   42.5730   36.6640 O.2    28  LEU28      -0.2867
     23  CB        35.3470   41.2710   39.2780 C.3    28  LEU28       0.0270
     24  CG        35.2930   40.5590   40.6390 C.3    28  LEU28       0.0019
     25  CD1       33.8450   40.4560   41.1220 C.3    28  LEU28       0.0001
     26  CD2       35.9070   39.1790   40.5690 C.3    28  LEU28       0.0001
     27  N         29.1260   41.8560   41.2730 N.3    32  PRO32      -0.2116
     28  CA        28.1610   40.8170   40.9390 C.3    32  PRO32       0.1372
     29  C         26.7820   41.1180   41.5040 C.2    32  PRO32       0.2244
     30  O         26.6470   41.4800   42.6550 O.2    32  PRO32      -0.2868
     31  CB        28.7870   39.5270   41.5460 C.3    32  PRO32       0.0268
     32  CG        30.2260   39.8160   41.5450 C.3    32  PRO32       0.0207
     33  CD        30.3450   41.2670   41.8520 C.3    32  PRO32       0.0892
     34  N         24.3780   39.4150   42.5070 N.3    34  VAL34      -0.1231
     35  CA        23.9350   38.6240   43.6920 C.3    34  VAL34       0.1692
     36  C         24.3270   39.3520   44.9930 C.2    34  VAL34       0.2591
     37  O         23.5350   39.4360   45.9540 O.2    34  VAL34      -0.2718
     38  CB        24.5290   37.1810   43.6570 C.3    34  VAL34       0.0266
     39  CG1       26.0510   37.2460   43.7170 C.3    34  VAL34       0.0020
     40  CG2       23.9310   36.2380   44.7650 C.3    34  VAL34       0.0020
     41  N         25.5190   39.9570   44.9900 N.am   35  LEU35      -0.1980
     42  CA        26.0040   40.6920   46.1460 C.3    35  LEU35       0.1596
     43  C         25.1040   41.8840   46.4230 C.2    35  LEU35       0.2287
     44  O         24.7980   42.1600   47.5680 O.2    35  LEU35      -0.2864
     45  CB        27.4420   41.1410   45.9310 C.3    35  LEU35       0.0297
     46  CG        28.4840   40.0250   45.7870 C.3    35  LEU35       0.0022
     47  CD1       29.8750   40.5900   45.7090 C.3    35  LEU35       0.0001
     48  CD2       28.3430   39.0330   46.9130 C.3    35  LEU35       0.0001
     49  N         26.5530   35.0250   52.9730 N.3    48  PHE48      -0.1227
     50  CA        26.6410   34.5890   51.5900 C.3    48  PHE48       0.1736
     51  C         28.0980   34.4930   51.1650 C.2    48  PHE48       0.2596
     52  O         28.4930   33.4700   50.6750 O.2    48  PHE48      -0.2718
     53  CB        25.8890   35.4950   50.6320 C.3    48  PHE48       0.0547
     54  CG        26.1140   35.1390   49.1950 C.ar   48  PHE48      -0.0202
     55  CD1       25.4420   34.0700   48.6210 C.ar   48  PHE48      -0.0042
     56  CD2       27.0320   35.8260   48.4300 C.ar   48  PHE48      -0.0042
     57  CE1       25.6710   33.7010   47.3030 C.ar   48  PHE48      -0.0003
     58  CE2       27.2800   35.4390   47.1000 C.ar   48  PHE48      -0.0003
     59  CZ        26.5720   34.3820   46.5470 C.ar   48  PHE48      -0.0000
     60  N         28.8840   35.5500   51.3430 N.am   49  THR49      -0.1953
     61  CA        30.2300   35.5830   50.7620 C.3    49  THR49       0.1897
     62  C         31.1600   34.5420   51.4340 C.2    49  THR49       0.2313
     63  O         31.9620   33.9320   50.7440 O.2    49  THR49      -0.2863
     64  CB        30.9030   37.0130   50.7640 C.3    49  THR49       0.1794
     65  OG1       31.3020   37.3620   52.0810 O.3    49  THR49      -0.2208
     66  CG2       29.9740   38.1150   50.2190 C.3    49  THR49       0.0378
     67  N         30.1430   31.1670   49.9460 N.3    52  TYR52      -0.1227
     68  CA        30.5090   31.0950   48.5200 C.3    52  TYR52       0.1736
     69  C         32.0350   30.8980   48.3320 C.2    52  TYR52       0.2595
     70  O         32.4910   30.1030   47.4910 O.2    52  TYR52      -0.2718
     71  CB        30.0910   32.3630   47.8000 C.3    52  TYR52       0.0548
     72  CG        30.4320   32.3090   46.3380 C.ar   52  TYR52      -0.0200
     73  CD1       29.5770   31.6830   45.4340 C.ar   52  TYR52      -0.0009
     74  CD2       31.6080   32.8350   45.8670 C.ar   52  TYR52      -0.0009
     75  CE1       29.8970   31.6090   44.0780 C.ar   52  TYR52       0.0417
     76  CE2       31.9400   32.7450   44.5140 C.ar   52  TYR52       0.0417
     77  CZ        31.0810   32.1470   43.6400 C.ar   52  TYR52       0.1957
     78  OH        31.3990   32.0660   42.3140 O.3    52  TYR52      -0.2866
     79  N         32.7960   31.6790   49.0810 N.am   53  ASN53      -0.1974
     80  CA        34.2100   31.6590   48.9870 C.3    53  ASN53       0.1688
     81  C         34.8170   30.3680   49.4840 C.2    53  ASN53       0.2292
     82  O         35.6370   29.7950   48.8000 O.2    53  ASN53      -0.2864
     83  CB        34.8060   32.8250   49.7700 C.3    53  ASN53       0.1181
     84  CG        34.6020   34.1440   49.0700 C.2    53  ASN53       0.2629
     85  OD1       34.5790   34.1870   47.8440 O.2    53  ASN53      -0.2716
     86  ND2       34.4680   35.2360   49.8450 N.am   53  ASN53      -0.0877
     87  N         20.6080   33.1830   35.7480 N.3    80  TYR80      -0.1241
     88  CA        21.5960   33.9110   36.5130 C.3    80  TYR80       0.1605
     89  C         22.8960   33.1260   36.5000 C.2    80  TYR80       0.2264
     90  O         23.9900   33.6410   36.1430 O.2    80  TYR80      -0.2867
     91  CB        21.1470   34.2020   37.9810 C.3    80  TYR80       0.0534
     92  CG        22.1600   35.1320   38.6400 C.ar   80  TYR80      -0.0201
     93  CD1       23.3400   34.6420   39.2000 C.ar   80  TYR80      -0.0009
     94  CD2       21.9860   36.4930   38.6060 C.ar   80  TYR80      -0.0009
     95  CE1       24.3050   35.5250   39.7270 C.ar   80  TYR80       0.0417
     96  CE2       22.9410   37.3700   39.1410 C.ar   80  TYR80       0.0417
     97  CZ        24.0920   36.8840   39.6880 C.ar   80  TYR80       0.1957
     98  OH        25.0230   37.8090   40.1890 O.3    80  TYR80      -0.2866
     99  N         26.6930   33.6060   34.7310 N.3    84  ALA84      -0.1231
    100  CA        27.7910   33.9750   35.6090 C.3    84  ALA84       0.1694
    101  C         28.8740   32.9150   35.7060 C.2    84  ALA84       0.2592
    102  O         30.0560   33.2240   35.6630 O.2    84  ALA84      -0.2718
    103  CB        27.2370   34.2980   37.0140 C.3    84  ALA84       0.0304
    104  N         28.4500   31.6550   35.8210 N.am   85  HIS85      -0.1976
    105  CA        29.3560   30.5290   35.9780 C.3    85  HIS85       0.1656
    106  C         29.7550   29.9360   34.6220 C.2    85  HIS85       0.2291
    107  O         30.8350   29.3810   34.4900 O.2    85  HIS85      -0.2864
    108  CB        28.7660   29.5270   36.9660 C.3    85  HIS85       0.0771
    109  CG        28.5520   30.1250   38.3290 C.ar   85  HIS85       0.0820
    110  ND1       29.5830   30.3790   39.2040 N.ar   85  HIS85      -0.2267
    111  CD2       27.4390   30.6150   38.9160 C.ar   85  HIS85       0.1154
    112  CE1       29.1080   30.9550   40.2880 C.ar   85  HIS85       0.1986
    113  NE2       27.8070   31.1090   40.1390 N.ar   85  HIS85      -0.2212
    114  N         28.8820   39.9100   31.8380 N.3   173  TYR173     -0.1241
    115  CA        29.2340   38.4980   31.7560 C.3   173  TYR173      0.1605
    116  C         29.1390   37.9440   30.3320 C.2   173  TYR173      0.2264
    117  O         29.9560   37.1590   29.9110 O.2   173  TYR173     -0.2867
    118  CB        28.3060   37.6910   32.6470 C.3   173  TYR173      0.0534
    119  CG        28.5910   37.7730   34.1310 C.ar  173  TYR173     -0.0201
    120  CD1       29.8480   37.4460   34.6330 C.ar  173  TYR173     -0.0009
    121  CD2       27.5830   38.0590   35.0380 C.ar  173  TYR173     -0.0009
    122  CE1       30.1060   37.4660   35.9930 C.ar  173  TYR173      0.0417
    123  CE2       27.8400   38.0980   36.4040 C.ar  173  TYR173      0.0417
    124  CZ        29.1030   37.7970   36.8710 C.ar  173  TYR173      0.1957
    125  OH        29.3750   37.8150   38.2210 O.3   173  TYR173     -0.2866
@<TRIPOS>BOND
     1   117   116    2
     2   116   115    1
     3   115   114    1
     4   115   118    1
     5   118   119    1
     6   119   120   ar
     7   119   121   ar
     8   107   106    2
     9   106   105    1
    10   120   122   ar
    11    99   100    1
    12   121   123   ar
    13   100   101    1
    14   100   103    1
    15   102   101    2
    16   101   104   am
    17    87    88    1
    18   104   105    1
    19   105   108    1
    20   122   124   ar
    21    90    89    2
    22   123   124   ar
    23    89    88    1
    24    88    91    1
    25    22    21    2
    26   124   125    1
    27   108   109    1
    28    21    20    1
    29    91    92    1
    30   109   111   ar
    31   109   110   ar
    32    94    92   ar
    33    94    96   ar
    34    92    93   ar
    35    20    23    1
    36    20    19    1
    37   111   113   ar
    38    96    97   ar
    39    93    95   ar
    40   110   112   ar
    41    23    24    1
    42    97    95   ar
    43    97    98    1
    44   113   112   ar
    45    26    24    1
    46    24    25    1
    47    28    27    1
    48    28    29    1
    49    28    31    1
    50    27    33    1
    51    16    15    2
    52    29    30    2
    53    32    31    1
    54    32    33    1
    55    78    77    1
    56    15    14    1
    57    34    35    1
    58    77    75   ar
    59    77    76   ar
    60    38    35    1
    61    38    39    1
    62    38    40    1
    63    35    36    1
    64    14    17    1
    65    14    13    1
    66    17    18    1
    67    75    73   ar
    68    76    74   ar
    69    41    36   am
    70    41    42    1
    71    36    37    2
    72    73    72   ar
    73    47    46    1
    74    46    45    1
    75    46    48    1
    76    74    72   ar
    77    45    42    1
    78    42    43    1
    79    72    71    1
    80    43    44    2
    81    59    58   ar
    82    59    57   ar
    83    58    56   ar
    84    57    55   ar
    85    70    69    2
    86     4     3    2
    87    71    68    1
    88    85    84    2
    89     3     2    1
    90    69    68    1
    91    69    79   am
    92    56    54   ar
    93    68    67    1
    94    12    11    1
    95    55    54   ar
    96    82    81    2
    97    10    11   ar
    98    10     8   ar
    99    80    79    1
   100    80    81    1
   101    80    83    1
   102    84    83    1
   103    84    86   am
   104    11     9   ar
   105    54    53    1
   106     8     6   ar
   107     2     1    1
   108     2     5    1
   109     9     7   ar
   110     6     7   ar
   111     6     5    1
   112    66    64    1
   113    53    50    1
   114    52    51    2
   115    63    62    2
   116    61    64    1
   117    61    60    1
   118    61    62    1
   119    64    65    1
   120    51    60   am
   121    51    50    1
   122    50    49    1
