@<TRIPOS>MOLECULE
tmp/3c1lB01.pdb
 110 108 0 0 0
SMALL
GASTEIGER

@<TRIPOS>ATOM
      1  N         24.3780   39.4150   42.5070 N.3    34  VAL34      -0.1245
      2  CA        23.9350   38.6240   43.6920 C.3    34  VAL34       0.1561
      3  C         24.3270   39.3520   44.9930 C.2    34  VAL34       0.2260
      4  O         23.5350   39.4360   45.9540 O.2    34  VAL34      -0.2867
      5  CB        24.5290   37.1810   43.6570 C.3    34  VAL34       0.0252
      6  CG1       26.0510   37.2460   43.7170 C.3    34  VAL34       0.0019
      7  CG2       23.9310   36.2380   44.7650 C.3    34  VAL34       0.0019
      8  N         21.9730   40.9250   48.3730 N.3    38  TYR38      -0.1241
      9  CA        22.1620   40.6920   49.8150 C.3    38  TYR38       0.1605
     10  C         22.5970   41.9160   50.6080 C.2    38  TYR38       0.2264
     11  O         22.7570   41.8310   51.8340 O.2    38  TYR38      -0.2867
     12  CB        23.1650   39.5360   50.0510 C.3    38  TYR38       0.0534
     13  CG        22.5760   38.1840   49.7330 C.ar   38  TYR38      -0.0201
     14  CD1       21.7790   37.5240   50.6580 C.ar   38  TYR38      -0.0009
     15  CD2       22.7960   37.5690   48.5240 C.ar   38  TYR38      -0.0009
     16  CE1       21.2210   36.2840   50.3860 C.ar   38  TYR38       0.0417
     17  CE2       22.2090   36.3290   48.2370 C.ar   38  TYR38       0.0417
     18  CZ        21.4250   35.7040   49.1890 C.ar   38  TYR38       0.1957
     19  OH        20.8530   34.4890   48.9530 O.3    38  TYR38      -0.2866
     20  N         26.5530   35.0250   52.9730 N.3    48  PHE48      -0.1241
     21  CA        26.6410   34.5890   51.5900 C.3    48  PHE48       0.1605
     22  C         28.0980   34.4930   51.1650 C.2    48  PHE48       0.2264
     23  O         28.4930   33.4700   50.6750 O.2    48  PHE48      -0.2867
     24  CB        25.8890   35.4950   50.6320 C.3    48  PHE48       0.0534
     25  CG        26.1140   35.1390   49.1950 C.ar   48  PHE48      -0.0203
     26  CD1       25.4420   34.0700   48.6210 C.ar   48  PHE48      -0.0042
     27  CD2       27.0320   35.8260   48.4300 C.ar   48  PHE48      -0.0042
     28  CE1       25.6710   33.7010   47.3030 C.ar   48  PHE48      -0.0003
     29  CE2       27.2800   35.4390   47.1000 C.ar   48  PHE48      -0.0003
     30  CZ        26.5720   34.3820   46.5470 C.ar   48  PHE48      -0.0000
     31  N         30.1430   31.1670   49.9460 N.3    52  TYR52      -0.1241
     32  CA        30.5090   31.0950   48.5200 C.3    52  TYR52       0.1605
     33  C         32.0350   30.8980   48.3320 C.2    52  TYR52       0.2264
     34  O         32.4910   30.1030   47.4910 O.2    52  TYR52      -0.2867
     35  CB        30.0910   32.3630   47.8000 C.3    52  TYR52       0.0534
     36  CG        30.4320   32.3090   46.3380 C.ar   52  TYR52      -0.0201
     37  CD1       29.5770   31.6830   45.4340 C.ar   52  TYR52      -0.0009
     38  CD2       31.6080   32.8350   45.8670 C.ar   52  TYR52      -0.0009
     39  CE1       29.8970   31.6090   44.0780 C.ar   52  TYR52       0.0417
     40  CE2       31.9400   32.7450   44.5140 C.ar   52  TYR52       0.0417
     41  CZ        31.0810   32.1470   43.6400 C.ar   52  TYR52       0.1957
     42  OH        31.3990   32.0660   42.3140 O.3    52  TYR52      -0.2866
     43  N         20.6080   33.1830   35.7480 N.3    80  TYR80      -0.1227
     44  CA        21.5960   33.9110   36.5130 C.3    80  TYR80       0.1736
     45  C         22.8960   33.1260   36.5000 C.2    80  TYR80       0.2595
     46  O         23.9900   33.6410   36.1430 O.2    80  TYR80      -0.2718
     47  CB        21.1470   34.2020   37.9810 C.3    80  TYR80       0.0548
     48  CG        22.1600   35.1320   38.6400 C.ar   80  TYR80      -0.0200
     49  CD1       23.3400   34.6420   39.2000 C.ar   80  TYR80      -0.0009
     50  CD2       21.9860   36.4930   38.6060 C.ar   80  TYR80      -0.0009
     51  CE1       24.3050   35.5250   39.7270 C.ar   80  TYR80       0.0417
     52  CE2       22.9410   37.3700   39.1410 C.ar   80  TYR80       0.0417
     53  CZ        24.0920   36.8840   39.6880 C.ar   80  TYR80       0.1957
     54  OH        25.0230   37.8090   40.1890 O.3    80  TYR80      -0.2866
     55  N         22.7590   31.8610   36.8440 N.am   81  CYS81      -0.1970
     56  CA        23.8960   31.0480   37.1360 C.3    81  CYS81       0.1712
     57  C         24.5510   30.5450   35.9080 C.2    81  CYS81       0.2296
     58  O         25.7810   30.4550   35.8840 O.2    81  CYS81      -0.2864
     59  CB        23.5130   29.8970   38.0320 C.3    81  CYS81       0.0983
     60  SG        23.1040   30.4390   39.7260 S.3    81  CYS81      -0.0798
     61  N         28.4500   31.6550   35.8210 N.3    85  HIS85      -0.1241
     62  CA        29.3560   30.5290   35.9780 C.3    85  HIS85       0.1621
     63  C         29.7550   29.9360   34.6220 C.2    85  HIS85       0.2264
     64  O         30.8350   29.3810   34.4900 O.2    85  HIS85      -0.2867
     65  CB        28.7660   29.5270   36.9660 C.3    85  HIS85       0.0745
     66  CG        28.5520   30.1250   38.3290 C.ar   85  HIS85       0.0817
     67  ND1       29.5830   30.3790   39.2040 N.ar   85  HIS85      -0.2268
     68  CD2       27.4390   30.6150   38.9160 C.ar   85  HIS85       0.1154
     69  CE1       29.1080   30.9550   40.2880 C.ar   85  HIS85       0.1986
     70  NE2       27.8070   31.1090   40.1390 N.ar   85  HIS85      -0.2212
     71  N         24.6420   23.4350   46.8450 N.3   156  PHE156     -0.1227
     72  CA        24.6360   24.8970   46.9240 C.3   156  PHE156      0.1736
     73  C         24.0110   25.5280   45.7300 C.2   156  PHE156      0.2595
     74  O         23.2910   26.4950   45.8640 O.2   156  PHE156     -0.2718
     75  CB        26.0850   25.4060   47.0320 C.3   156  PHE156      0.0547
     76  CG        26.1960   26.8680   47.1740 C.ar  156  PHE156     -0.0202
     77  CD1       26.0490   27.4710   48.4090 C.ar  156  PHE156     -0.0042
     78  CD2       26.4930   27.6620   46.0790 C.ar  156  PHE156     -0.0042
     79  CE1       26.1840   28.8780   48.5290 C.ar  156  PHE156     -0.0003
     80  CE2       26.6200   29.0580   46.2080 C.ar  156  PHE156     -0.0003
     81  CZ        26.4710   29.6500   47.4080 C.ar  156  PHE156     -0.0000
     82  N         24.2650   24.9520   44.5660 N.am  157  PHE157     -0.1976
     83  CA        23.6580   25.4400   43.3200 C.3   157  PHE157      0.1639
     84  C         22.2060   25.1400   43.1080 C.2   157  PHE157      0.2290
     85  O         21.4750   25.9340   42.5120 O.2   157  PHE157     -0.2864
     86  CB        24.5600   25.1230   42.1190 C.3   157  PHE157      0.0560
     87  CG        25.7160   26.1100   42.0530 C.ar  157  PHE157     -0.0200
     88  CD1       25.5120   27.3650   41.5350 C.ar  157  PHE157     -0.0042
     89  CD2       26.8730   25.8620   42.7050 C.ar  157  PHE157     -0.0042
     90  CE1       26.5050   28.3080   41.5470 C.ar  157  PHE157     -0.0003
     91  CE2       27.8770   26.7830   42.7270 C.ar  157  PHE157     -0.0003
     92  CZ        27.6920   28.0250   42.1420 C.ar  157  PHE157     -0.0000
     93  N         20.9770   28.0350   45.1070 N.3   159  SER159     -0.1217
     94  CA        21.2740   29.2760   44.3980 C.3   159  SER159      0.1889
     95  C         20.3340   29.4750   43.2160 C.2   159  SER159      0.2288
     96  O         19.8540   30.6080   42.9670 O.2   159  SER159     -0.2866
     97  CB        22.7100   29.2470   43.8160 C.3   159  SER159      0.2089
     98  OG        23.7200   29.2590   44.8050 O.3   159  SER159     -0.2183
     99  N         16.9050   30.4220   44.5740 N.3   162  VAL162     -0.1231
    100  CA        16.7900   31.7900   44.9840 C.3   162  VAL162      0.1692
    101  C         16.6680   32.7010   43.7290 C.2   162  VAL162      0.2591
    102  O         15.7530   33.5190   43.6700 O.2   162  VAL162     -0.2718
    103  CB        17.9270   32.2490   45.9570 C.3   162  VAL162      0.0266
    104  CG1       17.8440   33.7880   46.2190 C.3   162  VAL162      0.0020
    105  CG2       17.8530   31.4420   47.2620 C.3   162  VAL162      0.0020
    106  N         17.5180   32.5160   42.7140 N.am  163  ALA163     -0.1980
    107  CA        17.4400   33.3500   41.4850 C.3   163  ALA163      0.1597
    108  C         16.1140   33.1520   40.7030 C.2   163  ALA163      0.2287
    109  O         15.4720   34.1230   40.2670 O.2   163  ALA163     -0.2864
    110  CB        18.7040   33.0940   40.5730 C.3   163  ALA163      0.0319
@<TRIPOS>BOND
     1    64    63    2
     2    63    62    1
     3    43    44    1
     4    61    62    1
     5    58    57    2
     6    57    56    1
     7    62    65    1
     8    46    45    2
     9    45    44    1
    10    45    55   am
    11    44    47    1
    12    55    56    1
    13    65    66    1
    14    56    59    1
    15    47    48    1
    16    59    60    1
    17    66    68   ar
    18    66    67   ar
    19    50    48   ar
    20    50    52   ar
    21    48    49   ar
    22    68    70   ar
    23    52    53   ar
    24    49    51   ar
    25    67    69   ar
    26    53    51   ar
    27    53    54    1
    28    70    69   ar
    29   109   108    2
    30   110   107    1
    31   108   107    1
    32   107   106    1
    33    88    90   ar
    34    88    87   ar
    35    90    92   ar
    36    87    86    1
    37    87    89   ar
    38    86    83    1
    39    92    91   ar
    40    42    41    1
    41     1     2    1
    42    85    84    2
    43    89    91   ar
    44   106   101   am
    45    96    95    2
    46    84    83    1
    47    95    94    1
    48    83    82    1
    49    41    39   ar
    50    41    40   ar
    51     5     2    1
    52     5     6    1
    53     5     7    1
    54   102   101    2
    55     2     3    1
    56   101   100    1
    57    97    94    1
    58    97    98    1
    59    39    37   ar
    60    94    93    1
    61    40    38   ar
    62    82    73   am
    63    99   100    1
    64   100   103    1
    65     3     4    2
    66    37    36   ar
    67    73    74    2
    68    73    72    1
    69    38    36   ar
    70   103   104    1
    71   103   105    1
    72    78    80   ar
    73    78    76   ar
    74    80    81   ar
    75    36    35    1
    76    30    29   ar
    77    30    28   ar
    78    71    72    1
    79    72    75    1
    80    75    76    1
    81    29    27   ar
    82    76    77   ar
    83    28    26   ar
    84    81    79   ar
    85    34    33    2
    86    35    32    1
    87    17    15   ar
    88    17    18   ar
    89    33    32    1
    90     8     9    1
    91    77    79   ar
    92    27    25   ar
    93    32    31    1
    94    15    13   ar
    95    26    25   ar
    96    19    18    1
    97    18    16   ar
    98    25    24    1
    99    13    12    1
   100    13    14   ar
   101     9    12    1
   102     9    10    1
   103    16    14   ar
   104    10    11    2
   105    24    21    1
   106    23    22    2
   107    22    21    1
   108    21    20    1
