@<TRIPOS>MOLECULE
tmp/3c1mC01.pdb
 200 193 0 0 0
SMALL
GASTEIGER

@<TRIPOS>ATOM
      1  N         -6.7060  -21.8530   88.9140 N.3     5  LYS5       -0.1245
      2  CA        -6.0120  -20.5780   88.9070 C.3     5  LYS5        0.1561
      3  C         -6.4080  -19.8160   90.1690 C.2     5  LYS5        0.2260
      4  O         -7.5870  -19.8060   90.5370 O.2     5  LYS5       -0.2867
      5  CB        -6.3600  -19.8020   87.6200 C.3     5  LYS5        0.0271
      6  CG        -5.7590  -18.4170   87.4900 C.3     5  LYS5        0.0035
      7  CD        -6.6800  -17.3730   88.0700 C.3     5  LYS5        0.0206
      8  CE        -5.9930  -16.0250   88.1350 C.3     5  LYS5        0.1093
      9  NZ        -6.9220  -14.9480   88.5480 N.3     5  LYS5       -0.1314
     10  N         -6.1870  -16.0990   92.3170 N.3     7  GLY7       -0.1210
     11  CA        -5.9120  -14.6750   92.2250 C.3     7  GLY7        0.1956
     12  C         -5.1070  -14.1050   93.3670 C.2     7  GLY7        0.2612
     13  O         -4.8470  -14.7870   94.3630 O.2     7  GLY7       -0.2717
     14  N         -4.7290  -12.8370   93.2270 N.am    8  GLY8       -0.1942
     15  CA        -3.9320  -12.1300   94.2240 C.3     8  GLY8        0.2014
     16  C         -4.4750  -12.1420   95.6410 C.2     8  GLY8        0.2639
     17  O         -3.7260  -12.3910   96.5730 O.2     8  GLY8       -0.2714
     18  N         -5.7670  -11.8610   95.8090 N.am    9  THR9       -0.1950
     19  CA        -6.3920  -11.8640   97.1380 C.3     9  THR9        0.1897
     20  C         -6.4340  -13.2670   97.7190 C.2     9  THR9        0.2313
     21  O         -6.2300  -13.4510   98.9220 O.2     9  THR9       -0.2863
     22  CB        -7.8220  -11.2760   97.1490 C.3     9  THR9        0.1794
     23  OG1       -8.6190  -11.9170   96.1480 O.3     9  THR9       -0.2208
     24  CG2       -7.7930   -9.7680   96.9170 C.3     9  THR9        0.0378
     25  N         -1.4430  -15.9990   90.4370 N.3    39  SER39      -0.1202
     26  CA        -1.0750  -14.5970   90.2570 C.3    39  SER39       0.2020
     27  C         -0.0960  -14.1170   91.3440 C.2    39  SER39       0.2618
     28  O          0.1130  -14.7880   92.3610 O.2    39  SER39      -0.2717
     29  CB        -2.3310  -13.7160   90.2700 C.3    39  SER39       0.2103
     30  OG        -3.1770  -13.9980   89.1690 O.3    39  SER39      -0.2182
     31  N          0.5090  -12.9570   91.1080 N.am   40  ALA40      -0.1979
     32  CA         1.2000  -12.2040   92.1450 C.3    40  ALA40       0.1597
     33  C          0.2690  -12.0070   93.3350 C.2    40  ALA40       0.2287
     34  O         -0.9510  -11.9630   93.1680 O.2    40  ALA40      -0.2864
     35  CB         1.6100  -10.8530   91.6050 C.3    40  ALA40       0.0319
     36  N         -4.5530   -8.7520   84.2010 N.3   207  GLY207     -0.1225
     37  CA        -5.6130   -9.7210   84.4010 C.3   207  GLY207      0.1811
     38  C         -5.3830  -11.0120   83.6420 C.2   207  GLY207      0.2280
     39  O         -6.2530  -11.8840   83.6250 O.2   207  GLY207     -0.2866
     40  N         -3.6450  -13.6690   84.1090 N.3   209  SER209     -0.1202
     41  CA        -3.5080  -14.9490   84.8140 C.3   209  SER209      0.2020
     42  C         -4.6900  -15.8950   84.5460 C.2   209  SER209      0.2618
     43  O         -4.5220  -17.1230   84.5860 O.2   209  SER209     -0.2717
     44  CB        -3.3320  -14.7390   86.3240 C.3   209  SER209      0.2103
     45  OG        -2.0650  -14.1840   86.6390 O.3   209  SER209     -0.2182
     46  N         -5.8710  -15.3110   84.2960 N.am  210  ASP210     -0.1973
     47  CA        -7.0820  -16.0430   83.9070 C.3   210  ASP210      0.1709
     48  C         -6.8520  -16.6820   82.5340 C.2   210  ASP210      0.2293
     49  O         -7.2000  -17.8530   82.3030 O.2   210  ASP210     -0.2864
     50  CB        -8.2810  -15.0870   83.7990 C.3   210  ASP210      0.1436
     51  CG        -8.7600  -14.5340   85.1450 C.2   210  ASP210      0.3671
     52  OD1       -8.5560  -15.1630   86.2030 O.co2 210  ASP210     -0.2456
     53  OD2       -9.3890  -13.4520   85.1320 O.co2 210  ASP210     -0.2456
     54  N        -11.3970  -21.2260   88.0160 N.3   227  ILE227     -0.1231
     55  CA       -10.9340  -19.8770   88.3100 C.3   227  ILE227      0.1692
     56  C        -11.2860  -19.5670   89.7550 C.2   227  ILE227      0.2592
     57  O        -12.4520  -19.3630   90.0820 O.2   227  ILE227     -0.2718
     58  CB       -11.6060  -18.8200   87.3850 C.3   227  ILE227      0.0266
     59  CG1      -11.3560  -19.1320   85.8960 C.3   227  ILE227      0.0019
     60  CG2      -11.1770  -17.4040   87.7720 C.3   227  ILE227      0.0020
     61  CD1       -9.9010  -19.0050   85.4260 C.3   227  ILE227      0.0001
     62  N        -10.2790  -19.5350   90.6190 N.am  228  TRP228     -0.1962
     63  CA       -10.5120  -19.2680   92.0280 C.3   228  TRP228      0.1771
     64  C        -10.2290  -17.8130   92.4190 C.2   228  TRP228      0.2620
     65  O         -9.0780  -17.3790   92.5130 O.2   228  TRP228     -0.2715
     66  CB        -9.7110  -20.2360   92.8740 C.3   228  TRP228      0.0590
     67  CG       -10.2070  -21.6240   92.7910 C.ar  228  TRP228      0.0006
     68  CD1       -9.9940  -22.5120   91.7780 C.ar  228  TRP228      0.0946
     69  CD2      -11.0040  -22.3050   93.7690 C.ar  228  TRP228      0.0152
     70  NE1      -10.6070  -23.7100   92.0640 N.ar  228  TRP228     -0.2442
     71  CE2      -11.2310  -23.6130   93.2820 C.ar  228  TRP228      0.0810
     72  CE3      -11.5430  -21.9390   95.0120 C.ar  228  TRP228      0.0012
     73  CZ2      -11.9800  -24.5560   93.9880 C.ar  228  TRP228      0.0191
     74  CZ3      -12.2820  -22.8750   95.7190 C.ar  228  TRP228      0.0001
     75  CH2      -12.4910  -24.1740   95.2060 C.ar  228  TRP228      0.0015
     76  N        -11.3170  -17.0770   92.6390 N.am  229  THR229     -0.1937
     77  CA       -11.2800  -15.6540   92.9410 C.3   229  THR229      0.2028
     78  C        -11.8720  -15.3650   94.3260 C.2   229  THR229      0.2642
     79  O        -11.8920  -16.2470   95.1860 O.2   229  THR229     -0.2714
     80  CB       -11.9350  -14.8150   91.8000 C.3   229  THR229      0.1808
     81  OG1      -11.9320  -13.4250   92.1550 O.3   229  THR229     -0.2208
     82  CG2      -13.3560  -15.2790   91.4730 C.3   229  THR229      0.0379
     83  N        -12.3430  -14.1420   94.5520 N.am  230  ASP230     -0.1957
     84  CA       -12.7970  -13.7460   95.8860 C.3   230  ASP230      0.1840
     85  C        -14.2820  -13.3910   95.9040 C.2   230  ASP230      0.2621
     86  O        -14.7460  -12.6480   96.7700 O.2   230  ASP230     -0.2715
     87  CB       -11.9390  -12.5890   96.4160 C.3   230  ASP230      0.1450
     88  CG       -11.9340  -11.3820   95.4820 C.2   230  ASP230      0.3671
     89  OD1      -12.6950  -11.3860   94.4880 O.co2 230  ASP230     -0.2456
     90  OD2      -11.1700  -10.4260   95.7510 O.co2 230  ASP230     -0.2456
     91  N        -14.9980  -13.9040   94.9090 N.am  231  VAL231     -0.1977
     92  CA       -16.4550  -13.8420   94.8320 C.3   231  VAL231      0.1596
     93  C        -16.9180  -15.2160   94.3680 C.2   231  VAL231      0.2287
     94  O        -16.1470  -15.9500   93.7420 O.2   231  VAL231     -0.2864
     95  CB       -16.9880  -12.7470   93.8580 C.3   231  VAL231      0.0276
     96  CG1      -16.9510  -11.3780   94.5060 C.3   231  VAL231      0.0022
     97  CG2      -16.2180  -12.7430   92.5400 C.3   231  VAL231      0.0022
     98  N        -18.3640  -16.7610   92.0260 N.3   233  GLY233     -0.1210
     99  CA       -18.7200  -16.8740   90.6140 C.3   233  GLY233      0.1956
    100  C        -18.7660  -15.5340   89.9050 C.2   233  GLY233      0.2612
    101  O        -18.1270  -14.5690   90.3340 O.2   233  GLY233     -0.2717
    102  N        -19.5070  -15.4910   88.7970 N.am  234  VAL234     -0.1965
    103  CA       -19.8130  -14.2420   88.0850 C.3   234  VAL234      0.1727
    104  C        -21.1960  -13.7830   88.5270 C.2   234  VAL234      0.2616
    105  O        -22.1410  -14.5740   88.5690 O.2   234  VAL234     -0.2715
    106  CB       -19.7550  -14.4180   86.5330 C.3   234  VAL234      0.0290
    107  CG1      -20.1160  -13.1260   85.8190 C.3   234  VAL234      0.0023
    108  CG2      -18.3620  -14.8840   86.0900 C.3   234  VAL234      0.0023
    109  N        -21.2940  -12.5040   88.8700 N.am  235  TYR235     -0.1974
    110  CA       -22.4940  -11.9220   89.4440 C.3   235  TYR235      0.1639
    111  C        -23.2360  -11.0410   88.4430 C.2   235  TYR235      0.2290
    112  O        -22.6660  -10.5920   87.4490 O.2   235  TYR235     -0.2864
    113  CB       -22.1290  -11.0980   90.6740 C.3   235  TYR235      0.0560
    114  CG       -21.8290  -11.9030   91.9140 C.ar  235  TYR235     -0.0198
    115  CD1      -22.4080  -11.5650   93.1290 C.ar  235  TYR235     -0.0009
    116  CD2      -20.9680  -12.9990   91.8800 C.ar  235  TYR235     -0.0009
    117  CE1      -22.1410  -12.2960   94.2790 C.ar  235  TYR235      0.0417
    118  CE2      -20.6960  -13.7390   93.0230 C.ar  235  TYR235      0.0417
    119  CZ       -21.2820  -13.3770   94.2160 C.ar  235  TYR235      0.1957
    120  OH       -21.0260  -14.0930   95.3560 O.3   235  TYR235     -0.2866
    121  N        -23.8640   -8.1540   88.5160 N.3   237  THR237     -0.1203
    122  CA       -23.0080   -6.9930   88.3010 C.3   237  THR237      0.1994
    123  C        -21.8650   -7.0680   89.3240 C.2   237  THR237      0.2618
    124  O        -21.7370   -8.0810   90.0230 O.2   237  THR237     -0.2717
    125  CB       -23.8000   -5.6500   88.3360 C.3   237  THR237      0.1784
    126  OG1      -22.9870   -4.5930   87.8130 O.3   237  THR237     -0.2211
    127  CG2      -24.2740   -5.3000   89.7380 C.3   237  THR237      0.0376
    128  N        -21.0230   -6.0330   89.3900 N.am  238  ASP238     -0.1960
    129  CA       -19.9160   -6.0020   90.3540 C.3   238  ASP238      0.1825
    130  C        -20.4550   -5.8850   91.7810 C.2   238  ASP238      0.2464
    131  O        -21.0510   -4.8690   92.1290 O.2   238  ASP238     -0.2730
    132  CB       -18.9520   -4.8490   90.0410 C.3   238  ASP238      0.1450
    133  CG       -17.6850   -4.8720   90.9100 C.2   238  ASP238      0.3671
    134  OD1      -17.5080   -5.8070   91.7090 O.co2 238  ASP238     -0.2456
    135  OD2      -16.8550   -3.9450   90.7930 O.co2 238  ASP238     -0.2456
    136  N        -20.2260   -6.9190   92.6200 N.am  239  PRO239     -0.2715
    137  CA       -20.7690   -6.9280   93.9890 C.3   239  PRO239      0.1536
    138  C        -20.3030   -5.7370   94.8280 C.2   239  PRO239      0.2598
    139  O        -20.9000   -5.4300   95.8590 O.2   239  PRO239     -0.2715
    140  CB       -20.2190   -8.2340   94.5820 C.3   239  PRO239      0.0310
    141  CG       -19.9000   -9.0860   93.3920 C.3   239  PRO239      0.0237
    142  CD       -19.4320   -8.1330   92.3430 C.3   239  PRO239      0.0939
    143  N        -19.2460   -5.0780   94.3720 N.am  240  ARG240     -0.1978
    144  CA       -18.7020   -3.9160   95.0520 C.3   240  ARG240      0.1597
    145  C        -19.3810   -2.5970   94.6530 C.2   240  ARG240      0.2287
    146  O        -19.4010   -1.6470   95.4410 O.2   240  ARG240     -0.2864
    147  CB       -17.1790   -3.8970   94.9040 C.3   240  ARG240      0.0334
    148  CG       -16.5560   -4.9160   95.8660 C.3   240  ARG240      0.0492
    149  CD       -15.1800   -5.4310   95.4650 C.3   240  ARG240      0.2205
    150  NE       -14.6790   -6.4130   96.4430 N.pl3 240  ARG240     -0.0865
    151  CZ       -14.9740   -7.7180   96.4410 C.cat 240  ARG240      0.5346
    152  NH1      -15.7720   -8.2320   95.5110 N.pl3 240  ARG240      0.1354
    153  NH2      -14.4700   -8.5170   97.3790 N.pl3 240  ARG240      0.1354
    154  N        -19.3210  -10.0090   78.7170 N.3   259  LEU259     -0.1245
    155  CA       -19.3010   -9.4130   80.0410 C.3   259  LEU259      0.1561
    156  C        -17.9020   -8.9960   80.4500 C.2   259  LEU259      0.2260
    157  O        -17.6810   -7.8600   80.8700 O.2   259  LEU259     -0.2867
    158  CB       -19.8540  -10.3880   81.0730 C.3   259  LEU259      0.0270
    159  CG       -21.3000  -10.2290   81.5120 C.3   259  LEU259      0.0019
    160  CD1      -21.5110  -11.1900   82.6710 C.3   259  LEU259      0.0001
    161  CD2      -21.5960   -8.7770   81.9180 C.3   259  LEU259      0.0001
    162  N        -16.2140   -5.1110   81.0110 N.3   263  GLY263     -0.1210
    163  CA       -15.8990   -4.6360   82.3620 C.3   263  GLY263      0.1956
    164  C        -15.9940   -5.5790   83.5470 C.2   263  GLY263      0.2612
    165  O        -15.6230   -5.1950   84.6640 O.2   263  GLY263     -0.2717
    166  N        -16.4950   -6.7990   83.3400 N.am  264  ALA264     -0.1965
    167  CA       -16.5440   -7.7890   84.4310 C.3   264  ALA264      0.1728
    168  C        -15.1310   -8.2810   84.7010 C.2   264  ALA264      0.2616
    169  O        -14.6180   -9.1470   83.9920 O.2   264  ALA264     -0.2715
    170  CB       -17.4690   -8.9450   84.0920 C.3   264  ALA264      0.0334
    171  N        -14.5060   -7.6990   85.7210 N.am  265  LYS265     -0.1963
    172  CA       -13.0940   -7.9300   86.0390 C.3   265  LYS265      0.1728
    173  C        -12.7680   -9.3640   86.4540 C.2   265  LYS265      0.2616
    174  O        -11.6190   -9.8070   86.3080 O.2   265  LYS265     -0.2715
    175  CB       -12.6610   -6.9700   87.1410 C.3   265  LYS265      0.0311
    176  CG       -11.1720   -6.8780   87.3100 C.3   265  LYS265      0.0038
    177  CD       -10.7860   -6.1960   88.6010 C.3   265  LYS265      0.0206
    178  CE        -9.2650   -6.0730   88.6820 C.3   265  LYS265      0.1093
    179  NZ        -8.8210   -5.5310   89.9930 N.3   265  LYS265     -0.1314
    180  N        -13.7710  -10.0780   86.9680 N.am  266  VAL266     -0.1977
    181  CA       -13.6380  -11.4880   87.3710 C.3   266  VAL266      0.1596
    182  C        -12.9840  -12.3850   86.3420 C.2   266  VAL266      0.2287
    183  O        -12.3380  -13.3630   86.7140 O.2   266  VAL266     -0.2864
    184  CB       -14.9890  -12.1550   87.7040 C.3   266  VAL266      0.0276
    185  CG1      -15.1970  -12.2080   89.1790 C.3   266  VAL266      0.0022
    186  CG2      -16.1700  -11.4880   86.9450 C.3   266  VAL266      0.0022
    187  N        -24.9570   -6.7790   84.0850 N.3   311  ILE311     -0.1231
    188  CA       -24.5920   -5.3940   83.7690 C.3   311  ILE311      0.1692
    189  C        -23.1200   -5.1560   84.1120 C.2   311  ILE311      0.2592
    190  O        -22.6910   -5.4320   85.2350 O.2   311  ILE311     -0.2718
    191  CB       -25.4400   -4.3790   84.5850 C.3   311  ILE311      0.0266
    192  CG1      -26.9320   -4.6880   84.4630 C.3   311  ILE311      0.0019
    193  CG2      -25.1380   -2.9200   84.1690 C.3   311  ILE311      0.0020
    194  CD1      -27.6870   -4.5060   85.7560 C.3   311  ILE311      0.0001
    195  N        -22.3540   -4.6380   83.1530 N.am  312  SER312     -0.1952
    196  CA       -20.9500   -4.3020   83.3890 C.3   312  SER312      0.1924
    197  C        -20.6000   -2.8830   82.9380 C.2   312  SER312      0.2314
    198  O        -21.3610   -2.2500   82.1840 O.2   312  SER312     -0.2863
    199  CB       -20.0260   -5.3220   82.7280 C.3   312  SER312      0.2116
    200  OG       -20.2380   -5.3610   81.3290 O.3   312  SER312     -0.2180
@<TRIPOS>BOND
     1   154   155    1
     2   155   156    1
     3   155   158    1
     4   156   157    2
     5   162   163    1
     6   158   159    1
     7   200   199    1
     8   159   161    1
     9   159   160    1
    10   198   197    2
    11    49    48    2
    12   163   164    1
    13    48    47    1
    14   199   196    1
    15   197   196    1
    16   195   196    1
    17   195   189   am
    18   166   164   am
    19   166   167    1
    20   164   165    2
    21    39    38    2
    22    38    37    1
    23   188   187    1
    24   188   189    1
    25   188   191    1
    26    50    47    1
    27    50    51    1
    28    47    46    1
    29   169   168    2
    30   170   167    1
    31    40    41    1
    32   189   190    2
    33   193   191    1
    34    36    37    1
    35    46    42   am
    36   167   168    1
    37   192   191    1
    38   192   194    1
    39    42    43    2
    40    42    41    1
    41   168   171   am
    42    41    44    1
    43    53    51   ar
    44    51    52   ar
    45    61    59    1
    46   171   172    1
    47   107   106    1
    48    59    58    1
    49   172   173    1
    50   172   175    1
    51   108   106    1
    52   174   173    2
    53    44    45    1
    54   182   183    2
    55   182   181    1
    56   173   180   am
    57   106   103    1
    58   186   184    1
    59   180   181    1
    60   175   176    1
    61   176   177    1
    62   181   184    1
    63    58    60    1
    64    58    55    1
    65   112   111    2
    66     6     5    1
    67     6     7    1
    68     5     2    1
    69   184   185    1
    70   126   125    1
    71    54    55    1
    72     7     8    1
    73   103   104    1
    74   103   102    1
    75     8     9    1
    76   122   125    1
    77   122   121    1
    78   122   123    1
    79    55    56    1
    80   125   127    1
    81   111   110    1
    82   104   105    2
    83   104   109   am
    84   177   178    1
    85   178   179    1
    86   102   100   am
    87   109   110    1
    88     2     1    1
    89     2     3    1
    90    30    29    1
    91   123   128   am
    92   123   124    2
    93   128   129    1
    94   110   113    1
    95    56    57    2
    96    56    62   am
    97   100   101    2
    98   100    99    1
    99   132   129    1
   100   132   133    1
   101     3     4    2
   102    26    29    1
   103    26    25    1
   104    26    27    1
   105   129   130    1
   106    99    98    1
   107    62    63    1
   108   113   114    1
   109   135   133   ar
   110   133   134   ar
   111    31    27   am
   112    31    32    1
   113    27    28    2
   114    82    80    1
   115    35    32    1
   116    68    70   ar
   117    68    67   ar
   118   130   131    2
   119   130   136   am
   120    80    81    1
   121    80    77    1
   122   116   114   ar
   123   116   118   ar
   124   114   115   ar
   125    63    64    1
   126    63    66    1
   127    70    71   ar
   128    32    33    1
   129    11    10    1
   130    11    12    1
   131   142   136    1
   132   142   141    1
   133    64    65    2
   134    64    76   am
   135    97    95    1
   136   136   137    1
   137    76    77    1
   138    67    66    1
   139    67    69   ar
   140    77    78    1
   141   118   119   ar
   142   115   117   ar
   143    34    33    2
   144    14    12   am
   145    14    15    1
   146    71    69   ar
   147    71    73   ar
   148    12    13    2
   149   141   140    1
   150    94    93    2
   151    69    72   ar
   152    95    96    1
   153    95    92    1
   154    73    75   ar
   155   137   140    1
   156   137   138    1
   157   119   117   ar
   158   119   120    1
   159    15    16    1
   160    78    83   am
   161    78    79    2
   162    93    92    1
   163   143   138   am
   164   143   144    1
   165    89    88   ar
   166    83    84    1
   167   145   144    1
   168   145   146    2
   169   138   139    2
   170    92    91    1
   171   147   144    1
   172   147   148    1
   173    91    85   am
   174    72    74   ar
   175    75    74   ar
   176   149   148    1
   177   149   150    1
   178    88    90   ar
   179    88    87    1
   180   152   151    1
   181    16    18   am
   182    16    17    2
   183    18    19    1
   184    84    85    1
   185    84    87    1
   186    85    86    2
   187    23    22    1
   188   151   150    2
   189   151   153    1
   190    24    22    1
   191    19    22    1
   192    19    20    1
   193    20    21    2
