@<TRIPOS>MOLECULE
tmp/3c1mC00.pdb
 80 75 0 0 0
SMALL
GASTEIGER

@<TRIPOS>ATOM
      1  N         -6.7060  -21.8530   88.9140 N.3     5  LYS5       -0.1245
      2  CA        -6.0120  -20.5780   88.9070 C.3     5  LYS5        0.1561
      3  C         -6.4080  -19.8160   90.1690 C.2     5  LYS5        0.2260
      4  O         -7.5870  -19.8060   90.5370 O.2     5  LYS5       -0.2867
      5  CB        -6.3600  -19.8020   87.6200 C.3     5  LYS5        0.0271
      6  CG        -5.7590  -18.4170   87.4900 C.3     5  LYS5        0.0035
      7  CD        -6.6800  -17.3730   88.0700 C.3     5  LYS5        0.0206
      8  CE        -5.9930  -16.0250   88.1350 C.3     5  LYS5        0.1093
      9  NZ        -6.9220  -14.9480   88.5480 N.3     5  LYS5       -0.1314
     10  N         -1.4430  -15.9990   90.4370 N.3    39  SER39      -0.1202
     11  CA        -1.0750  -14.5970   90.2570 C.3    39  SER39       0.2020
     12  C         -0.0960  -14.1170   91.3440 C.2    39  SER39       0.2618
     13  O          0.1130  -14.7880   92.3610 O.2    39  SER39      -0.2717
     14  CB        -2.3310  -13.7160   90.2700 C.3    39  SER39       0.2103
     15  OG        -3.1770  -13.9980   89.1690 O.3    39  SER39      -0.2182
     16  N          0.5090  -12.9570   91.1080 N.am   40  ALA40      -0.1979
     17  CA         1.2000  -12.2040   92.1450 C.3    40  ALA40       0.1597
     18  C          0.2690  -12.0070   93.3350 C.2    40  ALA40       0.2287
     19  O         -0.9510  -11.9630   93.1680 O.2    40  ALA40      -0.2864
     20  CB         1.6100  -10.8530   91.6050 C.3    40  ALA40       0.0319
     21  N          1.7080   -6.3960   91.7590 N.3    45  THR45      -0.1218
     22  CA         1.8210   -5.9580   90.3560 C.3    45  THR45       0.1862
     23  C          1.7020   -4.4350   90.2270 C.2    45  THR45       0.2287
     24  O          2.4880   -3.8120   89.5130 O.2    45  THR45      -0.2866
     25  CB         0.8170   -6.6750   89.4150 C.3    45  THR45       0.1770
     26  OG1        0.9670   -8.0840   89.5590 O.3    45  THR45      -0.2211
     27  CG2        1.0920   -6.3300   87.9620 C.3    45  THR45       0.0375
     28  N          4.5580  -12.7520   89.9640 N.3   129  GLU129     -0.1245
     29  CA         4.2430  -14.1710   89.8320 C.3   129  GLU129      0.1567
     30  C          5.4280  -15.0920   90.0920 C.2   129  GLU129      0.2260
     31  O          5.2370  -16.2300   90.5290 O.2   129  GLU129     -0.2867
     32  CB         3.6920  -14.4670   88.4300 C.3   129  GLU129      0.0388
     33  CG         2.2310  -14.1050   88.2140 C.3   129  GLU129      0.1160
     34  CD         1.9810  -12.6110   88.1770 C.2   129  GLU129      0.3649
     35  OE1        2.9470  -11.8440   87.9330 O.co2 129  GLU129     -0.2457
     36  OE2        0.8100  -12.2100   88.3860 O.co2 129  GLU129     -0.2457
     37  N         -0.0320  -14.6860   83.7860 N.3   192  PHE192     -0.1241
     38  CA         0.3030  -13.3230   83.3560 C.3   192  PHE192      0.1605
     39  C          1.4360  -13.2370   82.3330 C.2   192  PHE192      0.2264
     40  O          1.5380  -12.2550   81.6050 O.2   192  PHE192     -0.2867
     41  CB         0.6440  -12.4840   84.5970 C.3   192  PHE192      0.0534
     42  CG         0.8400  -11.0070   84.3350 C.ar  192  PHE192     -0.0203
     43  CD1        1.8390  -10.3100   85.0190 C.ar  192  PHE192     -0.0042
     44  CD2        0.0060  -10.3070   83.4600 C.ar  192  PHE192     -0.0042
     45  CE1        2.0210   -8.9550   84.8290 C.ar  192  PHE192     -0.0003
     46  CE2        0.1820   -8.9500   83.2610 C.ar  192  PHE192     -0.0003
     47  CZ         1.1900   -8.2690   83.9470 C.ar  192  PHE192     -0.0000
     48  N         -2.8690   -7.0140   81.6100 N.3   206  ARG206     -0.1231
     49  CA        -3.3330   -7.0350   83.0010 C.3   206  ARG206      0.1694
     50  C         -4.5480   -7.9380   83.1540 C.2   206  ARG206      0.2593
     51  O         -5.4640   -7.9000   82.3380 O.2   206  ARG206     -0.2718
     52  CB        -3.6850   -5.6170   83.4710 C.3   206  ARG206      0.0321
     53  CG        -2.5280   -4.6270   83.4600 C.3   206  ARG206      0.0489
     54  CD        -1.3980   -5.0230   84.4220 C.3   206  ARG206      0.2205
     55  NE        -1.8510   -5.2470   85.7970 N.pl3 206  ARG206     -0.0865
     56  CZ        -1.8010   -4.3440   86.7760 C.cat 206  ARG206      0.5346
     57  NH1       -1.3160   -3.1210   86.5480 N.pl3 206  ARG206      0.1354
     58  NH2       -2.2410   -4.6630   87.9900 N.pl3 206  ARG206      0.1354
     59  N         -4.5530   -8.7520   84.2010 N.am  207  GLY207     -0.1942
     60  CA        -5.6130   -9.7210   84.4010 C.3   207  GLY207      0.2014
     61  C         -5.3830  -11.0120   83.6420 C.2   207  GLY207      0.2639
     62  O         -6.2530  -11.8840   83.6250 O.2   207  GLY207     -0.2714
     63  N         -4.2040  -11.1520   83.0390 N.am  208  GLY208     -0.1939
     64  CA        -3.9250  -12.2680   82.1360 C.3   208  GLY208      0.2014
     65  C         -3.5720  -13.5960   82.7810 C.2   208  GLY208      0.2640
     66  O         -3.2210  -14.5470   82.0800 O.2   208  GLY208     -0.2714
     67  N         -3.6450  -13.6690   84.1090 N.am  209  SER209     -0.1935
     68  CA        -3.5080  -14.9490   84.8140 C.3   209  SER209      0.2055
     69  C         -4.6900  -15.8950   84.5460 C.2   209  SER209      0.2643
     70  O         -4.5220  -17.1230   84.5860 O.2   209  SER209     -0.2714
     71  CB        -3.3320  -14.7390   86.3240 C.3   209  SER209      0.2130
     72  OG        -2.0650  -14.1840   86.6390 O.3   209  SER209     -0.2179
     73  N         -5.8710  -15.3110   84.2960 N.am  210  ASP210     -0.1971
     74  CA        -7.0820  -16.0430   83.9070 C.3   210  ASP210      0.1709
     75  C         -6.8520  -16.6820   82.5340 C.2   210  ASP210      0.2293
     76  O         -7.2000  -17.8530   82.3030 O.2   210  ASP210     -0.2864
     77  CB        -8.2810  -15.0870   83.7990 C.3   210  ASP210      0.1436
     78  CG        -8.7600  -14.5340   85.1450 C.2   210  ASP210      0.3671
     79  OD1       -8.5560  -15.1630   86.2030 O.co2 210  ASP210     -0.2456
     80  OD2       -9.3890  -13.4520   85.1320 O.co2 210  ASP210     -0.2456
@<TRIPOS>BOND
     1    40    39    2
     2    48    49    1
     3    66    65    2
     4    64    65    1
     5    64    63    1
     6    76    75    2
     7    39    38    1
     8    51    50    2
     9    75    74    1
    10    65    67   am
    11    49    50    1
    12    49    52    1
    13    63    61   am
    14    50    59   am
    15    46    44   ar
    16    46    47   ar
    17    38    37    1
    18    38    41    1
    19    53    52    1
    20    53    54    1
    21    44    42   ar
    22    62    61    2
    23    61    60    1
    24    77    74    1
    25    77    78    1
    26    74    73    1
    27    47    45   ar
    28    67    68    1
    29    59    60    1
    30    73    69   am
    31    42    41    1
    32    42    43   ar
    33    54    55    1
    34    69    70    2
    35    69    68    1
    36    68    71    1
    37    45    43   ar
    38    80    78   ar
    39    78    79   ar
    40    55    56    2
    41    71    72    1
    42    57    56    1
    43    56    58    1
    44     6     5    1
    45     6     7    1
    46     5     2    1
    47    35    34   ar
    48    27    25    1
    49     7     8    1
    50     8     9    1
    51    34    33    1
    52    34    36   ar
    53    33    32    1
    54    32    29    1
    55     2     1    1
    56     2     3    1
    57    15    14    1
    58    25    26    1
    59    25    22    1
    60    24    23    2
    61    29    28    1
    62    29    30    1
    63    30    31    2
    64     3     4    2
    65    23    22    1
    66    11    14    1
    67    11    10    1
    68    11    12    1
    69    22    21    1
    70    16    12   am
    71    16    17    1
    72    12    13    2
    73    20    17    1
    74    17    18    1
    75    19    18    2
