@<TRIPOS>MOLECULE
tmp/3c1nD00.pdb
 73 68 0 0 0
SMALL
GASTEIGER

@<TRIPOS>ATOM
      1  N         27.5330   80.6570  -34.8560 N.3   397  MET397     -0.1245
      2  CA        28.5220   79.9550  -35.6820 C.3   397  MET397      0.1570
      3  C         28.0020   78.6010  -36.1680 C.2   397  MET397      0.2261
      4  O         28.3680   78.1520  -37.2580 O.2   397  MET397     -0.2867
      5  CB        29.8400   79.7540  -34.9190 C.3   397  MET397      0.0387
      6  CG        30.5500   81.0380  -34.5100 C.3   397  MET397      0.0595
      7  SD        32.0000   80.7330  -33.4650 S.3   397  MET397     -0.1393
      8  CE        33.2840   80.5220  -34.7000 C.3   397  MET397      0.0692
      9  N         26.4000   76.0030  -37.9970 N.3   399  GLY399     -0.1210
     10  CA        25.8320   75.9410  -39.3390 C.3   399  GLY399      0.1956
     11  C         26.0880   77.1740  -40.1830 C.2   399  GLY399      0.2612
     12  O         25.4280   77.3790  -41.2050 O.2   399  GLY399     -0.2717
     13  N         27.0460   77.9950  -39.7590 N.am  400  ALA400     -0.1965
     14  CA        27.3830   79.2190  -40.4750 C.3   400  ALA400      0.1728
     15  C         28.6870   79.0650  -41.2380 C.2   400  ALA400      0.2616
     16  O         29.7740   79.2680  -40.6870 O.2   400  ALA400     -0.2715
     17  CB        27.4550   80.4030  -39.5190 C.3   400  ALA400      0.0334
     18  N         28.5610   78.7030  -42.5100 N.am  401  LYS401     -0.1963
     19  CA        29.7010   78.5770  -43.4130 C.3   401  LYS401      0.1728
     20  C         30.5420   79.8560  -43.4510 C.2   401  LYS401      0.2617
     21  O         30.0030   80.9680  -43.5100 O.2   401  LYS401     -0.2715
     22  CB        29.2460   78.2190  -44.8350 C.3   401  LYS401      0.0311
     23  CG        28.4360   76.9380  -44.9630 C.3   401  LYS401      0.0038
     24  CD        26.9390   77.2270  -45.0570 C.3   401  LYS401      0.0206
     25  CE        26.1350   75.9650  -45.3500 C.3   401  LYS401      0.1093
     26  NZ        26.5000   75.3490  -46.6570 N.3   401  LYS401     -0.1314
     27  N         31.8620   79.6850  -43.4060 N.am  402  GLY402     -0.1940
     28  CA        32.7930   80.7900  -43.6140 C.3   402  GLY402      0.2014
     29  C         33.5010   81.2680  -42.3650 C.2   402  GLY402      0.2639
     30  O         34.6890   81.6180  -42.4050 O.2   402  GLY402     -0.2714
     31  N         32.7780   81.2790  -41.2510 N.am  403  ILE403     -0.1963
     32  CA        33.3120   81.8480  -40.0280 C.3   403  ILE403      0.1727
     33  C         34.7020   81.2880  -39.6700 C.2   403  ILE403      0.2616
     34  O         35.6040   82.0630  -39.3500 O.2   403  ILE403     -0.2715
     35  CB        32.2880   81.7960  -38.8510 C.3   403  ILE403      0.0290
     36  CG1       32.7050   82.7480  -37.7240 C.3   403  ILE403      0.0022
     37  CG2       32.0830   80.3720  -38.3350 C.3   403  ILE403      0.0023
     38  CD1       32.6520   84.2240  -38.1080 C.3   403  ILE403      0.0001
     39  N         34.8790   79.9660  -39.7700 N.am  404  ALA404     -0.1963
     40  CA        36.1750   79.3210  -39.4850 C.3   404  ALA404      0.1728
     41  C         37.2680   79.7870  -40.4350 C.2   404  ALA404      0.2616
     42  O         38.3680   80.1270  -39.9980 O.2   404  ALA404     -0.2715
     43  CB        36.0580   77.8140  -39.5370 C.3   404  ALA404      0.0334
     44  N         36.9580   79.8000  -41.7310 N.am  405  GLY405     -0.1955
     45  CA        37.8790   80.3280  -42.7260 C.3   405  GLY405      0.1869
     46  C         38.3110   81.7340  -42.3550 C.2   405  GLY405      0.2309
     47  O         39.5040   82.0110  -42.2020 O.2   405  GLY405     -0.2863
     48  N         37.8440   71.7250  -32.7940 N.3   423  GLN423     -0.1245
     49  CA        36.4690   72.2050  -32.8180 C.3   423  GLN423      0.1566
     50  C         35.4950   71.0460  -32.5950 C.2   423  GLN423      0.2260
     51  O         35.5000   70.0640  -33.3440 O.2   423  GLN423     -0.2867
     52  CB        36.1630   72.9160  -34.1350 C.3   423  GLN423      0.0367
     53  CG        34.7440   73.4650  -34.2140 C.3   423  GLN423      0.0905
     54  CD        34.2310   73.5440  -35.6320 C.2   423  GLN423      0.2608
     55  OE1       33.3020   72.8310  -36.0090 O.2   423  GLN423     -0.2717
     56  NE2       34.8430   74.3980  -36.4310 N.am  423  GLN423     -0.0878
     57  N         29.8110   73.0030  -32.7520 N.3   427  GLU427     -0.1245
     58  CA        30.2370   74.1800  -33.5330 C.3   427  GLU427      0.1567
     59  C         29.9980   75.5190  -32.8220 C.2   427  GLU427      0.2260
     60  O         29.9540   76.5700  -33.4670 O.2   427  GLU427     -0.2867
     61  CB        29.5750   74.2100  -34.9190 C.3   427  GLU427      0.0388
     62  CG        29.6860   72.9370  -35.7460 C.3   427  GLU427      0.1160
     63  CD        28.6540   72.8900  -36.8720 C.2   427  GLU427      0.3649
     64  OE1       28.4700   73.9200  -37.5620 O.co2 427  GLU427     -0.2457
     65  OE2       28.0250   71.8240  -37.0650 O.co2 427  GLU427     -0.2457
     66  N         35.2760   77.4030  -31.0670 N.3   430  ILE430     -0.1245
     67  CA        36.4830   77.0980  -31.8440 C.3   430  ILE430      0.1561
     68  C         37.7210   77.4250  -31.0200 C.2   430  ILE430      0.2260
     69  O         37.9200   78.5660  -30.5940 O.2   430  ILE430     -0.2867
     70  CB        36.5240   77.8260  -33.2140 C.3   430  ILE430      0.0252
     71  CG1       35.7230   77.0520  -34.2610 C.3   430  ILE430      0.0019
     72  CG2       37.9340   77.9080  -33.7410 C.3   430  ILE430      0.0019
     73  CD1       34.2160   77.2250  -34.1700 C.3   430  ILE430      0.0001
@<TRIPOS>BOND
     1    26    25    1
     2    25    24    1
     3    24    23    1
     4    23    22    1
     5    22    19    1
     6    28    27    1
     7    28    29    1
     8    21    20    2
     9    20    19    1
    10    20    27   am
    11    19    18    1
    12    45    46    1
    13    45    44    1
    14    18    15   am
    15    30    29    2
    16    29    31   am
    17    46    47    2
    18    44    41   am
    19    31    32    1
    20    15    16    2
    21    15    14    1
    22    12    11    2
    23    14    13    1
    24    14    17    1
    25    41    42    2
    26    41    40    1
    27    11    13   am
    28    11    10    1
    29    32    33    1
    30    32    35    1
    31    39    33   am
    32    39    40    1
    33    33    34    2
    34    43    40    1
    35    10     9    1
    36    35    37    1
    37    35    36    1
    38    38    36    1
    39    64    63   ar
    40     4     3    2
    41    65    63   ar
    42    63    62    1
    43    56    54   am
    44     3     2    1
    45    55    54    2
    46    62    61    1
    47     2     5    1
    48     2     1    1
    49    54    53    1
    50     5     6    1
    51    61    58    1
    52     8     7    1
    53     6     7    1
    54    71    73    1
    55    71    70    1
    56    53    52    1
    57    52    49    1
    58    72    70    1
    59    58    59    1
    60    58    57    1
    61    60    59    2
    62    51    50    2
    63    70    67    1
    64    49    48    1
    65    49    50    1
    66    67    66    1
    67    67    68    1
    68    68    69    2
