@<TRIPOS>MOLECULE
tmp/3c1nC01.pdb
 83 81 0 0 0
SMALL
GASTEIGER

@<TRIPOS>ATOM
      1  N         58.2000   43.4860  -52.7380 N.3     5  LYS5       -0.1245
      2  CA        56.9380   42.9790  -52.2350 C.3     5  LYS5        0.1561
      3  C         55.8490   43.0390  -53.3000 C.2     5  LYS5        0.2260
      4  O         55.6860   44.0510  -53.9790 O.2     5  LYS5       -0.2867
      5  CB        56.5210   43.7380  -50.9690 C.3     5  LYS5        0.0271
      6  CG        55.2890   43.1720  -50.2730 C.3     5  LYS5        0.0035
      7  CD        54.0080   43.8220  -50.7840 C.3     5  LYS5        0.0206
      8  CE        52.7730   43.0490  -50.3470 C.3     5  LYS5        0.1093
      9  NZ        51.5150   43.7710  -50.7010 N.3     5  LYS5       -0.1314
     10  N         51.5990   41.9600  -54.0730 N.3     7  GLY7       -0.1210
     11  CA        50.3170   41.6590  -53.4450 C.3     7  GLY7        0.1956
     12  C         49.4220   40.7410  -54.2530 C.2     7  GLY7        0.2612
     13  O         49.7530   40.3470  -55.3760 O.2     7  GLY7       -0.2717
     14  N         48.2740   40.4200  -53.6620 N.am    8  GLY8       -0.1942
     15  CA        47.3030   39.4810  -54.2240 C.3     8  GLY8        0.2014
     16  C         46.9200   39.7120  -55.6700 C.2     8  GLY8        0.2640
     17  O         46.8940   38.7680  -56.4620 O.2     8  GLY8       -0.2714
     18  N         46.6180   40.9610  -56.0130 N.am    9  THR9       -0.1936
     19  CA        46.2680   41.3200  -57.3820 C.3     9  THR9        0.2028
     20  C         47.4690   41.1370  -58.3100 C.2     9  THR9        0.2642
     21  O         47.3280   40.6180  -59.4170 O.2     9  THR9       -0.2714
     22  CB        45.6970   42.7530  -57.4580 C.3     9  THR9        0.1808
     23  OG1       44.4860   42.8090  -56.6950 O.3     9  THR9       -0.2208
     24  CG2       45.3940   43.1670  -58.8960 C.3     9  THR9        0.0379
     25  N         48.6470   41.5380  -57.8410 N.am   10  SER10      -0.1949
     26  CA        49.8730   41.4210  -58.6270 C.3    10  SER10       0.1924
     27  C         50.2380   39.9590  -58.9190 C.2    10  SER10       0.2314
     28  O         50.9330   39.6730  -59.8940 O.2    10  SER10      -0.2863
     29  CB        51.0290   42.1410  -57.9310 C.3    10  SER10       0.2116
     30  OG        50.5880   43.3680  -57.3750 O.3    10  SER10      -0.2180
     31  N         57.3820   48.3390  -52.7520 N.3   227  ILE227     -0.1231
     32  CA        56.0110   47.8320  -52.6880 C.3   227  ILE227      0.1692
     33  C         55.3770   47.9060  -54.0720 C.2   227  ILE227      0.2592
     34  O         55.0940   48.9890  -54.5790 O.2   227  ILE227     -0.2718
     35  CB        55.1410   48.5720  -51.6170 C.3   227  ILE227      0.0266
     36  CG1       55.4290   48.0480  -50.2050 C.3   227  ILE227      0.0019
     37  CG2       53.6460   48.3620  -51.8750 C.3   227  ILE227      0.0020
     38  CD1       56.6540   48.5950  -49.5700 C.3   227  ILE227      0.0001
     39  N         55.1780   46.7430  -54.6820 N.am  228  TRP228     -0.1962
     40  CA        54.5700   46.6490  -56.0060 C.3   228  TRP228      0.1771
     41  C         53.0680   46.4260  -55.9110 C.2   228  TRP228      0.2620
     42  O         52.6060   45.4050  -55.3890 O.2   228  TRP228     -0.2715
     43  CB        55.2060   45.5190  -56.7990 C.3   228  TRP228      0.0590
     44  CG        56.5730   45.8270  -57.2780 C.ar  228  TRP228      0.0006
     45  CD1       57.7400   45.6650  -56.5910 C.ar  228  TRP228      0.0946
     46  CD2       56.9300   46.3440  -58.5640 C.ar  228  TRP228      0.0152
     47  NE1       58.8040   46.0540  -57.3690 N.ar  228  TRP228     -0.2442
     48  CE2       58.3350   46.4730  -58.5860 C.ar  228  TRP228      0.0810
     49  CE3       56.1970   46.7160  -59.6990 C.ar  228  TRP228      0.0012
     50  CZ2       59.0230   46.9570  -59.6990 C.ar  228  TRP228      0.0191
     51  CZ3       56.8830   47.1990  -60.8070 C.ar  228  TRP228      0.0001
     52  CH2       58.2820   47.3150  -60.7970 C.ar  228  TRP228      0.0015
     53  N         52.3150   47.3870  -56.4330 N.am  229  THR229     -0.1937
     54  CA        50.8660   47.4010  -56.3020 C.3   229  THR229      0.2028
     55  C         50.1910   47.5770  -57.6750 C.2   229  THR229      0.2642
     56  O         50.8590   47.4590  -58.7020 O.2   229  THR229     -0.2714
     57  CB        50.4300   48.4760  -55.2650 C.3   229  THR229      0.1808
     58  OG1       49.0360   48.3420  -54.9710 O.3   229  THR229     -0.2208
     59  CG2       50.7180   49.8870  -55.7620 C.3   229  THR229      0.0379
     60  N         48.8830   47.8360  -57.6970 N.am  230  ASP230     -0.1971
     61  CA        48.1660   48.0500  -58.9620 C.3   230  ASP230      0.1709
     62  C         47.8720   49.5260  -59.2970 C.2   230  ASP230      0.2293
     63  O         47.0120   49.8180  -60.1340 O.2   230  ASP230     -0.2864
     64  CB        46.8880   47.1930  -59.0350 C.3   230  ASP230      0.1436
     65  CG        45.8850   47.5090  -57.9250 C.2   230  ASP230      0.3671
     66  OD1       45.7190   48.6970  -57.5680 O.co2 230  ASP230     -0.2456
     67  OD2       45.2390   46.5560  -57.4210 O.co2 230  ASP230     -0.2456
     68  N         44.8660   52.0100  -48.6360 N.3   265  LYS265     -0.1231
     69  CA        45.3410   50.9170  -49.4780 C.3   265  LYS265      0.1693
     70  C         46.8460   50.6480  -49.3420 C.2   265  LYS265      0.2591
     71  O         47.2480   49.6060  -48.8110 O.2   265  LYS265     -0.2718
     72  CB        44.9380   51.1310  -50.9430 C.3   265  LYS265      0.0285
     73  CG        43.7170   50.3030  -51.3820 C.3   265  LYS265      0.0035
     74  CD        43.1300   50.7670  -52.7310 C.3   265  LYS265      0.0206
     75  CE        44.0790   50.5420  -53.9200 C.3   265  LYS265      0.1093
     76  NZ        44.4280   49.1030  -54.1420 N.3   265  LYS265     -0.1314
     77  N         47.6670   51.5940  -49.7940 N.am  266  VAL266     -0.1980
     78  CA        49.1050   51.3570  -49.9670 C.3   266  VAL266      0.1595
     79  C         49.9330   51.5350  -48.6860 C.2   266  VAL266      0.2287
     80  O         50.7220   50.6600  -48.3160 O.2   266  VAL266     -0.2864
     81  CB        49.6770   52.2430  -51.1120 C.3   266  VAL266      0.0276
     82  CG1       51.1910   52.0940  -51.2220 C.3   266  VAL266      0.0022
     83  CG2       49.0020   51.8980  -52.4420 C.3   266  VAL266      0.0022
@<TRIPOS>BOND
     1    51    52   ar
     2    51    49   ar
     3    52    50   ar
     4    63    62    2
     5    28    27    2
     6    49    46   ar
     7    50    48   ar
     8    21    20    2
     9    62    61    1
    10    64    61    1
    11    64    65    1
    12    61    60    1
    13    27    26    1
    14    24    22    1
    15    56    55    2
    16    26    29    1
    17    26    25    1
    18    48    46   ar
    19    48    47   ar
    20    46    44   ar
    21    20    25   am
    22    20    19    1
    23    29    30    1
    24    65    66   ar
    25    65    67   ar
    26    60    55   am
    27    55    54    1
    28    22    19    1
    29    22    23    1
    30    19    18    1
    31    47    45   ar
    32    44    43    1
    33    44    45   ar
    34    43    40    1
    35    17    16    2
    36    53    54    1
    37    53    41   am
    38    54    57    1
    39    18    16   am
    40    40    41    1
    41    40    39    1
    42    41    42    2
    43    59    57    1
    44    16    15    1
    45    13    12    2
    46    57    58    1
    47    39    33   am
    48    34    33    2
    49    12    14   am
    50    12    11    1
    51    15    14    1
    52    76    75    1
    53    10    11    1
    54    33    32    1
    55     4     3    2
    56    75    74    1
    57     3     2    1
    58    31    32    1
    59     1     2    1
    60    74    73    1
    61    32    35    1
    62    83    81    1
    63     2     5    1
    64    37    35    1
    65    35    36    1
    66    73    72    1
    67    82    81    1
    68    81    78    1
    69     5     6    1
    70    72    69    1
    71     7     8    1
    72     7     6    1
    73     9     8    1
    74    36    38    1
    75    78    77    1
    76    78    79    1
    77    77    70   am
    78    69    70    1
    79    69    68    1
    80    70    71    2
    81    79    80    2
