@<TRIPOS>MOLECULE
tmp/3c1tC02.pdb
 112 105 0 0 0
SMALL
GASTEIGER

@<TRIPOS>ATOM
      1  N          5.2880  -38.0050    7.0150 N.3    81  THR81      -0.1218
      2  CA         4.3730  -37.0620    7.6290 C.3    81  THR81       0.1862
      3  C          4.6480  -35.6510    7.0560 C.2    81  THR81       0.2287
      4  O          5.7910  -35.2770    6.7870 O.2    81  THR81      -0.2866
      5  CB         4.4560  -37.0860    9.1980 C.3    81  THR81       0.1770
      6  OG1        3.1790  -36.8040    9.7510 O.3    81  THR81      -0.2211
      7  CG2        5.4100  -36.0020    9.7710 C.3    81  THR81       0.0375
      8  N          5.9580  -32.5930    7.3390 N.3    83  MET83      -0.1196
      9  CA         6.7590  -31.7830    8.2860 C.3    83  MET83       0.1786
     10  C          7.8560  -31.0020    7.5590 C.2    83  MET83       0.2306
     11  O          8.9580  -30.7910    8.0880 O.2    83  MET83      -0.2863
     12  CB         7.3520  -32.6420    9.4360 C.2    83  MET83       0.0070
     13  CG         8.2980  -33.7740    9.0080 C.2    83  MET83       0.0282
     14  SD         8.9070  -34.8220   10.3620 S.3    83  MET83      -0.1125
     15  CE        10.5460  -34.0520   10.6290 C.3    83  MET83       0.0742
     16  N          5.3110  -40.5780   17.3390 N.3   123  SER123     -0.1217
     17  CA         6.1730  -39.5130   17.8240 C.3   123  SER123      0.1889
     18  C          6.0310  -39.4000   19.3450 C.2   123  SER123      0.2288
     19  O          4.9250  -39.5660   19.9100 O.2   123  SER123     -0.2866
     20  CB         5.6760  -38.2250   17.1560 C.3   123  SER123      0.2089
     21  OG         6.3050  -37.0370   17.5870 O.3   123  SER123     -0.2183
     22  N          5.8650  -36.8280   20.6740 N.3   125  GLY125     -0.1225
     23  CA         4.9020  -35.7280   20.8080 C.3   125  GLY125      0.1811
     24  C          3.4600  -36.1950   20.9390 C.2   125  GLY125      0.2280
     25  O          2.5930  -35.3940   21.1860 O.2   125  GLY125     -0.2866
     26  N          5.9930  -24.1970   20.0380 N.3   154  THR154     -0.1203
     27  CA         6.6370  -24.6180   18.7970 C.3   154  THR154      0.1994
     28  C          6.3200  -26.0830   18.5040 C.2   154  THR154      0.2617
     29  O          6.3470  -26.8830   19.4120 O.2   154  THR154     -0.2717
     30  CB         8.1810  -24.4900   18.8550 C.3   154  THR154      0.1784
     31  OG1        8.5540  -23.1800   19.2990 O.3   154  THR154     -0.2211
     32  CG2        8.7490  -24.7370   17.4980 C.3   154  THR154      0.0376
     33  N          6.0510  -26.3940   17.2340 N.am  155  ALA155     -0.1979
     34  CA         5.6580  -27.7190   16.7490 C.3   155  ALA155      0.1597
     35  C          4.2900  -28.2420   17.2250 C.2   155  ALA155      0.2287
     36  O          4.0370  -29.4000   17.0160 O.2   155  ALA155     -0.2864
     37  CB         6.7500  -28.7760   17.0350 C.3   155  ALA155      0.0319
     38  N          2.3960  -30.5300   14.9650 N.3   158  TYR158     -0.1227
     39  CA         2.9220  -31.8770   14.7270 C.3   158  TYR158      0.1736
     40  C          2.5590  -32.7520   15.9200 C.2   158  TYR158      0.2595
     41  O          2.3260  -33.9460   15.7620 O.2   158  TYR158     -0.2718
     42  CB         4.4480  -31.8650   14.4620 C.3   158  TYR158      0.0548
     43  CG         4.8920  -30.9600   13.3210 C.ar  158  TYR158     -0.0200
     44  CD1        4.3730  -31.1160   12.0460 C.ar  158  TYR158     -0.0009
     45  CD2        5.8590  -29.9680   13.5030 C.ar  158  TYR158     -0.0009
     46  CE1        4.7470  -30.2900   10.9850 C.ar  158  TYR158      0.0417
     47  CE2        6.2590  -29.1310   12.4300 C.ar  158  TYR158      0.0417
     48  CZ         5.6930  -29.3020   11.1660 C.ar  158  TYR158      0.1957
     49  OH         6.0490  -28.5150   10.0710 O.3   158  TYR158     -0.2866
     50  N          2.5070  -32.1700   17.1160 N.am  159  PHE159     -0.1976
     51  CA         2.0750  -32.9230   18.2720 C.3   159  PHE159      0.1639
     52  C          0.6110  -33.3560   18.0590 C.2   159  PHE159      0.2290
     53  O          0.2780  -34.5400   18.1740 O.2   159  PHE159     -0.2864
     54  CB         2.1880  -32.1280   19.5550 C.3   159  PHE159      0.0560
     55  CG         3.5600  -31.5790   19.8430 C.ar  159  PHE159     -0.0200
     56  CD1        4.7230  -32.2660   19.4700 C.ar  159  PHE159     -0.0042
     57  CD2        3.6750  -30.4050   20.5370 C.ar  159  PHE159     -0.0042
     58  CE1        5.9740  -31.7420   19.7500 C.ar  159  PHE159     -0.0003
     59  CE2        4.9470  -29.8830   20.8330 C.ar  159  PHE159     -0.0003
     60  CZ         6.0850  -30.5760   20.4420 C.ar  159  PHE159     -0.0000
     61  N          0.0260  -35.8770   14.8680 N.3   162  LYS162     -0.1245
     62  CA         0.4160  -37.2920   15.0610 C.3   162  LYS162      0.1561
     63  C         -0.4990  -37.9670   16.0890 C.2   162  LYS162      0.2260
     64  O         -0.7950  -39.1660   15.9840 O.2   162  LYS162     -0.2867
     65  CB         1.8760  -37.3730   15.5470 C.3   162  LYS162      0.0271
     66  CG         2.9590  -36.9040   14.5540 C.3   162  LYS162      0.0035
     67  CD         3.0770  -37.6600   13.2340 C.3   162  LYS162      0.0206
     68  CE         3.7590  -38.9850   13.4860 C.3   162  LYS162      0.1093
     69  NZ         4.1470  -39.6950   12.2410 N.3   162  LYS162     -0.1314
     70  N         16.0180  -33.0300   10.1110 N.3   199  PRO199     -0.2116
     71  CA        15.3400  -32.1160   11.0210 C.3   199  PRO199      0.1372
     72  C         15.6740  -32.3510   12.4950 C.2   199  PRO199      0.2244
     73  O         15.8710  -31.4070   13.2320 O.2   199  PRO199     -0.2868
     74  CB        13.8470  -32.4480   10.7850 C.3   199  PRO199      0.0268
     75  CG        13.7590  -32.9120    9.4250 C.3   199  PRO199      0.0207
     76  CD        15.0940  -33.5630    9.0840 C.3   199  PRO199      0.0892
     77  N         17.7450  -30.1740   15.9690 N.3   203  THR203     -0.1218
     78  CA        17.3710  -30.1030   17.3680 C.3   203  THR203      0.1862
     79  C         18.4840  -30.6750   18.2470 C.2   203  THR203      0.2287
     80  O         18.9180  -30.0200   19.1850 O.2   203  THR203     -0.2866
     81  CB        16.0410  -30.8550   17.6230 C.3   203  THR203      0.1770
     82  OG1       14.9930  -30.2700   16.8300 O.3   203  THR203     -0.2211
     83  CG2       15.6720  -30.8130   19.1260 C.3   203  THR203      0.0375
     84  N         15.9770  -21.8970   19.6330 N.3   213  ALA213     -0.1231
     85  CA        14.6180  -22.3090   19.2560 C.3   213  ALA213      0.1694
     86  C         14.3720  -23.8050   19.4300 C.2   213  ALA213      0.2592
     87  O         13.2360  -24.2420   19.4590 O.2   213  ALA213     -0.2718
     88  CB        14.3320  -21.9210   17.7770 C.3   213  ALA213      0.0304
     89  N         15.4270  -24.6080   19.5000 N.am  214  HIS214     -0.1976
     90  CA        15.2790  -26.0350   19.7130 C.3   214  HIS214      0.1656
     91  C         15.4990  -26.5510   21.1270 C.2   214  HIS214      0.2291
     92  O         15.2360  -27.7180   21.3980 O.2   214  HIS214     -0.2864
     93  CB        16.2270  -26.7210   18.7510 C.3   214  HIS214      0.0771
     94  CG        15.8320  -26.5710   17.3280 C.ar  214  HIS214      0.0820
     95  ND1       15.2270  -27.5940   16.6200 N.ar  214  HIS214     -0.2267
     96  CD2       15.9790  -25.5400   16.4710 C.ar  214  HIS214      0.1154
     97  CE1       15.0210  -27.1810   15.3830 C.ar  214  HIS214      0.1986
     98  NE2       15.4600  -25.9380   15.2660 N.ar  214  HIS214     -0.2212
     99  N         13.9890  -26.2560   24.0190 N.3   216  SER216     -0.1202
    100  CA        12.8610  -26.7030   24.8370 C.3   216  SER216      0.2020
    101  C         12.5150  -28.1750   24.6480 C.2   216  SER216      0.2618
    102  O         12.0880  -28.8330   25.5820 O.2   216  SER216     -0.2717
    103  CB        11.6320  -25.7980   24.6350 C.3   216  SER216      0.2103
    104  OG        10.8630  -26.1710   23.5100 O.3   216  SER216     -0.2182
    105  N         12.7210  -28.6900   23.4420 N.am  217  ILE217     -0.1979
    106  CA        12.6390  -30.1210   23.1800 C.3   217  ILE217      0.1595
    107  C         13.6760  -30.9740   23.9440 C.2   217  ILE217      0.2287
    108  O         13.3660  -32.1130   24.2810 O.2   217  ILE217     -0.2864
    109  CB        12.7700  -30.4400   21.6510 C.3   217  ILE217      0.0276
    110  CG1       11.4290  -30.3760   20.9300 C.3   217  ILE217      0.0022
    111  CG2       13.2440  -31.8810   21.4400 C.3   217  ILE217      0.0022
    112  CD1       10.4000  -31.4770   21.3240 C.3   217  ILE217      0.0001
@<TRIPOS>BOND
     1     4     3    2
     2     1     2    1
     3     3     2    1
     4     8     9    1
     5    10    11    2
     6    10     9    1
     7     2     5    1
     8     9    12    1
     9    13    12    2
    10    13    14    1
    11    76    75    1
    12    76    70    1
    13     5     6    1
    14     5     7    1
    15    75    74    1
    16    49    48    1
    17    70    71    1
    18    14    15    1
    19    74    71    1
    20    46    48   ar
    21    46    44   ar
    22    71    72    1
    23    48    47   ar
    24    44    43   ar
    25    69    68    1
    26    47    45   ar
    27    72    73    2
    28    67    68    1
    29    67    66    1
    30    43    45   ar
    31    43    42    1
    32    42    39    1
    33    66    65    1
    34    39    38    1
    35    39    40    1
    36    61    62    1
    37    62    65    1
    38    62    63    1
    39    98    97   ar
    40    98    96   ar
    41    97    95   ar
    42    41    40    2
    43    40    50   am
    44    77    78    1
    45    64    63    2
    46    96    94   ar
    47    95    94   ar
    48    34    37    1
    49    34    35    1
    50    34    33    1
    51    82    81    1
    52    36    35    2
    53    50    51    1
    54    20    21    1
    55    20    17    1
    56    33    28   am
    57    94    93    1
    58    16    17    1
    59    78    81    1
    60    78    79    1
    61    32    30    1
    62    81    83    1
    63    88    85    1
    64    17    18    1
    65    52    53    2
    66    52    51    1
    67    79    80    2
    68    51    54    1
    69    28    27    1
    70    28    29    2
    71    93    90    1
    72    27    30    1
    73    27    26    1
    74    30    31    1
    75    85    86    1
    76    85    84    1
    77    18    19    2
    78    86    87    2
    79    86    89   am
    80    56    58   ar
    81    56    55   ar
    82    89    90    1
    83    54    55    1
    84    90    91    1
    85    58    60   ar
    86    55    57   ar
    87    60    59   ar
    88    57    59   ar
    89    22    23    1
    90    23    24    1
    91   110   112    1
    92   110   109    1
    93    24    25    2
    94    91    92    2
    95   111   109    1
    96   109   106    1
    97   106   105    1
    98   106   107    1
    99   105   101   am
   100   104   103    1
   101   107   108    2
   102    99   100    1
   103   103   100    1
   104   101   100    1
   105   101   102    2
