@<TRIPOS>MOLECULE
tmp/3c1xA00.pdb
 225 213 0 0 0
SMALL
GASTEIGER

@<TRIPOS>ATOM
      1  N          1.2200   19.5690   54.1000 N.3    35  ILE35      -0.1231
      2  CA         1.4540   18.7940   55.3130 C.3    35  ILE35       0.1692
      3  C          2.8190   18.1220   55.2480 C.2    35  ILE35       0.2592
      4  O          3.5160   18.0080   56.2550 O.2    35  ILE35      -0.2718
      5  CB         0.3170   17.7850   55.5920 C.3    35  ILE35       0.0266
      6  CG1       -0.0990   17.0600   54.3140 C.3    35  ILE35       0.0019
      7  CG2       -0.8850   18.4930   56.1930 C.3    35  ILE35       0.0020
      8  CD1       -1.4700   16.4170   54.4060 C.3    35  ILE35       0.0001
      9  N          3.2090   17.7110   54.0460 N.am   36  GLY36      -0.1957
     10  CA         4.4940   17.0770   53.8210 C.3    36  GLY36       0.1869
     11  C          4.5760   16.3090   52.5160 C.2    36  GLY36       0.2309
     12  O          3.6320   15.6180   52.1280 O.2    36  GLY36      -0.2863
     13  N          1.6610   16.2210   49.5990 N.3    43  VAL43      -0.1245
     14  CA         0.4460   16.0030   50.3760 C.3    43  VAL43       0.1561
     15  C          0.0190   17.3110   51.0320 C.2    43  VAL43       0.2260
     16  O          0.8120   17.9670   51.7050 O.2    43  VAL43      -0.2867
     17  CB         0.6160   14.8670   51.4040 C.3    43  VAL43       0.0252
     18  CG1       -0.7000   14.1210   51.5940 C.3    43  VAL43       0.0019
     19  CG2        1.7180   13.9110   50.9660 C.3    43  VAL43       0.0019
     20  N         -6.4390   14.4520   53.8170 N.3    59  ALA59      -0.1245
     21  CA        -5.1230   14.6580   53.2300 C.3    59  ALA59       0.1562
     22  C         -5.1020   14.2370   51.7620 C.2    59  ALA59       0.2260
     23  O         -5.2160   13.0520   51.4450 O.2    59  ALA59      -0.2867
     24  CB        -4.0630   13.8960   54.0190 C.3    59  ALA59       0.0290
     25  N         -3.4690   13.4570   48.2190 N.3    61  LYS61      -0.1245
     26  CA        -2.2050   12.9300   47.7090 C.3    61  LYS61       0.1561
     27  C         -2.0720   13.1090   46.1910 C.2    61  LYS61       0.2260
     28  O         -2.8760   12.5790   45.4220 O.2    61  LYS61      -0.2867
     29  CB        -2.0740   11.4500   48.0790 C.3    61  LYS61       0.0271
     30  CG        -0.7230   10.8430   47.7640 C.3    61  LYS61       0.0035
     31  CD         0.3270   11.3110   48.7530 C.3    61  LYS61       0.0206
     32  CE         1.0450   12.5490   48.2460 C.3    61  LYS61       0.1093
     33  NZ         1.2870   12.4870   46.7780 N.3    61  LYS61      -0.1314
     34  N         -2.3760    1.6890   43.1930 N.3    78  GLU78      -0.1245
     35  CA        -2.1290    1.7190   44.6230 C.3    78  GLU78       0.1567
     36  C         -3.3490    2.2240   45.3790 C.2    78  GLU78       0.2260
     37  O         -3.9270    1.4970   46.1850 O.2    78  GLU78      -0.2867
     38  CB        -0.9260    2.6100   44.9310 C.3    78  GLU78       0.0388
     39  CG        -0.5500    2.6520   46.4070 C.3    78  GLU78       0.1160
     40  CD        -1.3040    3.7250   47.1800 C.2    78  GLU78       0.3649
     41  OE1       -1.8880    4.6220   46.5390 O.co2  78  GLU78      -0.2457
     42  OE2       -1.3160    3.6680   48.4280 O.co2  78  GLU78      -0.2457
     43  N         -5.6550    0.0500   45.8250 N.3    81  ILE81      -0.1231
     44  CA        -5.2310   -1.0590   46.6670 C.3    81  ILE81       0.1692
     45  C         -5.8330   -0.9010   48.0510 C.2    81  ILE81       0.2591
     46  O         -6.1330   -1.8870   48.7170 O.2    81  ILE81      -0.2718
     47  CB        -3.6880   -1.1950   46.7020 C.3    81  ILE81       0.0266
     48  CG1       -3.2620   -2.5790   46.2080 C.3    81  ILE81       0.0019
     49  CG2       -3.1350   -0.8790   48.0880 C.3    81  ILE81       0.0020
     50  CD1       -3.3570   -2.7440   44.6950 C.3    81  ILE81       0.0001
     51  N         -6.0510    0.3510   48.4500 N.am   82  MET82      -0.1979
     52  CA        -6.6340    0.6810   49.7440 C.3    82  MET82       0.1605
     53  C         -8.1570    0.6300   49.7090 C.2    82  MET82       0.2287
     54  O         -8.8060    0.5730   50.7480 O.2    82  MET82      -0.2864
     55  CB        -6.2140    2.0910   50.1660 C.3    82  MET82       0.0413
     56  CG        -4.7330    2.3860   50.0420 C.3    82  MET82       0.0598
     57  SD        -4.3250    4.0070   50.7200 S.3    82  MET82      -0.1393
     58  CE        -5.7610    4.3470   51.7120 C.3    82  MET82       0.0692
     59  N         -9.6300   -1.8790   51.8280 N.3    85  PHE85      -0.1241
     60  CA        -9.1440   -1.8620   53.2060 C.3    85  PHE85       0.1605
     61  C        -10.1260   -1.2600   54.2100 C.2    85  PHE85       0.2264
     62  O         -9.8550   -0.2170   54.8100 O.2    85  PHE85      -0.2867
     63  CB        -7.7920   -1.1510   53.2880 C.3    85  PHE85       0.0534
     64  CG        -6.6790   -1.8930   52.5990 C.ar   85  PHE85      -0.0203
     65  CD1       -6.8740   -3.1860   52.1380 C.ar   85  PHE85      -0.0042
     66  CD2       -5.4370   -1.2940   52.4060 C.ar   85  PHE85      -0.0042
     67  CE1       -5.8520   -3.8750   51.5130 C.ar   85  PHE85      -0.0003
     68  CE2       -4.4080   -1.9820   51.7800 C.ar   85  PHE85      -0.0003
     69  CZ        -4.6180   -3.2710   51.3320 C.ar   85  PHE85      -0.0000
     70  N         -6.6890    0.3260   59.6530 N.3    90  VAL90      -0.1231
     71  CA        -6.0290    0.3680   58.3470 C.3    90  VAL90       0.1692
     72  C         -6.3400    1.7000   57.6470 C.2    90  VAL90       0.2591
     73  O         -7.4920    2.1080   57.5780 O.2    90  VAL90      -0.2718
     74  CB        -6.4160   -0.8630   57.4970 C.3    90  VAL90       0.0266
     75  CG1       -5.8000   -0.7990   56.1030 C.3    90  VAL90       0.0020
     76  CG2       -6.0020   -2.1390   58.2100 C.3    90  VAL90       0.0020
     77  N         -5.3180    2.4150   57.1810 N.am   91  LEU91      -0.1980
     78  CA        -5.5770    3.6900   56.5140 C.3    91  LEU91       0.1596
     79  C         -6.4000    3.4320   55.2610 C.2    91  LEU91       0.2287
     80  O         -6.0460    2.5820   54.4410 O.2    91  LEU91      -0.2864
     81  CB        -4.2900    4.4350   56.1810 C.3    91  LEU91       0.0297
     82  CG        -4.4950    5.8380   55.5950 C.3    91  LEU91       0.0022
     83  CD1       -5.2280    6.7640   56.5590 C.3    91  LEU91       0.0001
     84  CD2       -3.1720    6.4290   55.1660 C.3    91  LEU91       0.0001
     85  N         -5.4340   11.4380   45.3110 N.3   106  VAL106     -0.1245
     86  CA        -6.0180   10.4050   46.1540 C.3   106  VAL106      0.1561
     87  C         -6.3780   11.0590   47.4850 C.2   106  VAL106      0.2260
     88  O         -5.5540   11.7500   48.0850 O.2   106  VAL106     -0.2867
     89  CB        -5.0430    9.2270   46.3480 C.3   106  VAL106      0.0252
     90  CG1       -5.5410    8.2980   47.4450 C.3   106  VAL106      0.0019
     91  CG2       -4.8570    8.4700   45.0380 C.3   106  VAL106      0.0019
     92  N         -7.2740   10.9030   51.3510 N.3   108  LEU108     -0.1231
     93  CA        -7.1530   10.1230   52.5790 C.3   108  LEU108      0.1678
     94  C         -7.6560   10.9080   53.7880 C.2   108  LEU108      0.2434
     95  O         -7.5960   12.1400   53.8150 O.2   108  LEU108     -0.2733
     96  CB        -5.6920    9.7300   52.8140 C.3   108  LEU108      0.0284
     97  CG        -4.9740    9.0510   51.6460 C.3   108  LEU108      0.0019
     98  CD1       -3.4750    9.0380   51.8670 C.3   108  LEU108      0.0001
     99  CD2       -5.5160    7.6390   51.4270 C.3   108  LEU108      0.0001
    100  N         -8.1400   10.1980   54.8180 N.am  109  PRO109     -0.2718
    101  CA        -8.5960   10.8970   56.0220 C.3   109  PRO109      0.1535
    102  C         -7.3880   11.5200   56.7130 C.2   109  PRO109      0.2599
    103  O         -6.3370   10.8850   56.8380 O.2   109  PRO109     -0.2715
    104  CB        -9.1710    9.7700   56.8920 C.3   109  PRO109      0.0310
    105  CG        -9.3340    8.5870   55.9710 C.3   109  PRO109      0.0237
    106  CD        -8.2760    8.7370   54.9360 C.3   109  PRO109      0.0939
    107  N         -7.5210   12.7780   57.1180 N.am  110  TYR110     -0.1960
    108  CA        -6.4290   13.4740   57.7840 C.3   110  TYR110      0.1771
    109  C         -6.0710   12.7980   59.1190 C.2   110  TYR110      0.2619
    110  O         -6.9450   12.3530   59.8620 O.2   110  TYR110     -0.2715
    111  CB        -6.7940   14.9470   58.0000 C.3   110  TYR110      0.0574
    112  CG        -5.6740   15.7500   58.6190 C.ar  110  TYR110     -0.0198
    113  CD1       -4.4700   15.9180   57.9470 C.ar  110  TYR110     -0.0009
    114  CD2       -5.8080   16.3110   59.8890 C.ar  110  TYR110     -0.0009
    115  CE1       -3.4250   16.6160   58.5220 C.ar  110  TYR110      0.0417
    116  CE2       -4.7820   17.0360   60.4590 C.ar  110  TYR110      0.0417
    117  CZ        -3.5870   17.1780   59.7770 C.ar  110  TYR110      0.1957
    118  OH        -2.5480   17.8880   60.3400 O.3   110  TYR110     -0.2866
    119  N         -4.7810   12.6890   59.4080 N.am  111  MET111     -0.1977
    120  CA        -4.3330   12.0480   60.6430 C.3   111  MET111      0.1605
    121  C         -3.6750   13.1110   61.4940 C.2   111  MET111      0.2287
    122  O         -2.4960   13.4100   61.3340 O.2   111  MET111     -0.2864
    123  CB        -3.3490   10.9150   60.3310 C.3   111  MET111      0.0413
    124  CG        -3.9260    9.8420   59.4050 C.3   111  MET111      0.0598
    125  SD        -5.0450    8.7210   60.2720 S.3   111  MET111     -0.1393
    126  CE        -6.5870    9.0400   59.4580 C.3   111  MET111      0.0692
    127  N         -0.1460   12.6760   62.9700 N.3   114  GLY114     -0.1210
    128  CA         0.8980   12.1950   62.0730 C.3   114  GLY114      0.1956
    129  C          1.2970   10.7410   62.2790 C.2   114  GLY114      0.2611
    130  O          0.4530    9.8890   62.5440 O.2   114  GLY114     -0.2717
    131  N          2.5810   10.4370   62.1320 N.am  115  ASP115     -0.1973
    132  CA         3.0150    9.0540   62.3060 C.3   115  ASP115      0.1709
    133  C          3.3710    8.6560   63.7360 C.2   115  ASP115      0.2293
    134  O          3.8130    9.4720   64.5410 O.2   115  ASP115     -0.2864
    135  CB         4.0970    8.6530   61.3090 C.3   115  ASP115      0.1436
    136  CG         5.4120    9.3200   61.5870 C.2   115  ASP115      0.3671
    137  OD1        6.1250    8.8610   62.4960 O.co2 115  ASP115     -0.2456
    138  OD2        5.7220   10.3240   60.9220 O.co2 115  ASP115     -0.2456
    139  N          7.0390    9.6900   65.1980 N.3   118  ASN118     -0.1240
    140  CA         7.2430   11.0690   65.6000 C.3   118  ASN118      0.1653
    141  C          6.3870   11.3800   66.8200 C.2   118  ASN118      0.2266
    142  O          6.8490   12.0270   67.7500 O.2   118  ASN118     -0.2867
    143  CB         6.9620   12.0270   64.4340 C.3   118  ASN118      0.1155
    144  CG         8.0900   12.0310   63.4140 C.2   118  ASN118      0.2627
    145  OD1        7.8540   12.0320   62.2040 O.2   118  ASN118     -0.2716
    146  ND2        9.3280   11.9570   63.9040 N.am  118  ASN118     -0.0877
    147  N         -5.1940   -7.2060   57.4180 N.3   146  LEU146     -0.1245
    148  CA        -4.4520   -7.3010   56.1560 C.3   146  LEU146      0.1561
    149  C         -4.0430   -8.7220   55.7940 C.2   146  LEU146      0.2260
    150  O         -4.1560   -9.1180   54.6350 O.2   146  LEU146     -0.2867
    151  CB        -3.2220   -6.3920   56.1550 C.3   146  LEU146      0.0270
    152  CG        -3.5450   -4.9010   56.1530 C.3   146  LEU146      0.0019
    153  CD1       -2.2480   -4.1040   56.3530 C.3   146  LEU146      0.0001
    154  CD2       -4.2540   -4.5050   54.8590 C.3   146  LEU146      0.0001
    155  N         -2.6870   -9.7270   52.1430 N.3   151  PHE151     -0.1241
    156  CA        -1.8890   -8.5670   51.7560 C.3   151  PHE151      0.1605
    157  C         -0.5990   -8.5300   52.5790 C.2   151  PHE151      0.2264
    158  O         -0.6500   -8.4820   53.8080 O.2   151  PHE151     -0.2867
    159  CB        -2.6960   -7.2960   51.9910 C.3   151  PHE151      0.0534
    160  CG        -1.9480   -6.0340   51.6870 C.ar  151  PHE151     -0.0203
    161  CD1       -1.9250   -5.5190   50.3910 C.ar  151  PHE151     -0.0042
    162  CD2       -1.2730   -5.3500   52.6950 C.ar  151  PHE151     -0.0042
    163  CE1       -1.2320   -4.3540   50.1040 C.ar  151  PHE151     -0.0003
    164  CE2       -0.5820   -4.1780   52.4150 C.ar  151  PHE151     -0.0003
    165  CZ        -0.5670   -3.6770   51.1190 C.ar  151  PHE151     -0.0000
    166  N          2.4440   -6.5150   53.7000 N.3   153  HIS153     -0.1241
    167  CA         2.8570   -5.1290   53.8120 C.3   153  HIS153      0.1621
    168  C          4.2360   -4.8920   53.2100 C.2   153  HIS153      0.2264
    169  O          4.3890   -4.0400   52.3370 O.2   153  HIS153     -0.2867
    170  CB         2.8300   -4.7110   55.2780 C.3   153  HIS153      0.0745
    171  CG         2.7750   -3.2300   55.4900 C.ar  153  HIS153      0.0817
    172  ND1        3.8670   -2.4090   55.3060 N.ar  153  HIS153     -0.2268
    173  CD2        1.7720   -2.4300   55.9220 C.ar  153  HIS153      0.1154
    174  CE1        3.5400   -1.1680   55.6200 C.ar  153  HIS153      0.1986
    175  NE2        2.2700   -1.1510   55.9840 N.ar  153  HIS153     -0.2212
    176  N          7.0050    4.3990   61.5990 N.3   159  ARG159     -0.1245
    177  CA         6.9500    5.5540   60.7030 C.3   159  ARG159      0.1563
    178  C          5.8250    5.4230   59.6640 C.2   159  ARG159      0.2260
    179  O          5.3450    6.4230   59.1140 O.2   159  ARG159     -0.2867
    180  CB         8.3070    5.7480   60.0150 C.3   159  ARG159      0.0307
    181  CG         8.5320    4.8150   58.8170 C.3   159  ARG159      0.0489
    182  CD        10.0020    4.6720   58.4190 C.3   159  ARG159      0.2205
    183  NE        10.2250    3.4220   57.6900 N.pl3 159  ARG159     -0.0865
    184  CZ        10.9490    2.4030   58.1440 C.cat 159  ARG159      0.5346
    185  NH1       11.5670    2.4910   59.3140 N.pl3 159  ARG159      0.1354
    186  NH2       11.0640    1.2960   57.4250 N.pl3 159  ARG159      0.1354
    187  N         -0.1010    5.6470   61.0220 N.3   162  MET162     -0.1245
    188  CA        -0.6390    6.9730   61.2930 C.3   162  MET162      0.1570
    189  C         -1.5370    7.0070   62.5300 C.2   162  MET162      0.2261
    190  O         -2.1460    6.0090   62.9040 O.2   162  MET162     -0.2867
    191  CB        -1.3480    7.5210   60.0580 C.3   162  MET162      0.0387
    192  CG        -0.4580    7.5090   58.8200 C.3   162  MET162      0.0595
    193  SD         0.7990    8.8040   58.8340 S.3   162  MET162     -0.1393
    194  CE        -0.2260   10.2320   59.1390 C.3   162  MET162      0.0692
    195  N         -2.5740    1.5380   60.1740 N.3   171  VAL171     -0.1231
    196  CA        -1.4130    0.9820   59.5100 C.3   171  VAL171      0.1692
    197  C         -1.4430    1.5490   58.0990 C.2   171  VAL171      0.2592
    198  O         -2.5070    1.6640   57.4890 O.2   171  VAL171     -0.2718
    199  CB        -1.4760   -0.5610   59.5050 C.3   171  VAL171      0.0266
    200  CG1       -0.2710   -1.1490   58.8050 C.3   171  VAL171      0.0020
    201  CG2       -1.5800   -1.0860   60.9340 C.3   171  VAL171      0.0020
    202  N         -0.2910    1.9630   57.5960 N.am  172  ALA172     -0.1966
    203  CA        -0.2490    2.5380   56.2610 C.3   172  ALA172      0.1728
    204  C          1.1100    2.2950   55.6220 C.2   172  ALA172      0.2616
    205  O          1.8850    1.4590   56.0890 O.2   172  ALA172     -0.2715
    206  CB        -0.5590    4.0150   56.3120 C.3   172  ALA172      0.0334
    207  N          1.3790    3.0150   54.5380 N.am  173  ASP173     -0.1957
    208  CA         2.6270    2.8880   53.8070 C.3   173  ASP173      0.1840
    209  C          2.9150    4.2380   53.1670 C.2   173  ASP173      0.2622
    210  O          2.1750    4.6870   52.3010 O.2   173  ASP173     -0.2715
    211  CB         2.4810    1.8220   52.7100 C.3   173  ASP173      0.1450
    212  CG         3.8010    1.1500   52.3590 C.2   173  ASP173      0.3671
    213  OD1        4.8540    1.8260   52.4140 O.co2 173  ASP173     -0.2456
    214  OD2        3.7790   -0.0580   52.0190 O.co2 173  ASP173     -0.2456
    215  N          3.9690    4.9040   53.6200 N.am  174  PHE174     -0.1974
    216  CA         4.3390    6.1910   53.0520 C.3   174  PHE174      0.1639
    217  C          5.4980    5.9910   52.0850 C.2   174  PHE174      0.2290
    218  O          5.9450    6.9300   51.4320 O.2   174  PHE174     -0.2864
    219  CB         4.7240    7.1880   54.1490 C.3   174  PHE174      0.0560
    220  CG         4.6550    8.6230   53.7100 C.ar  174  PHE174     -0.0200
    221  CD1        3.4700    9.1560   53.2260 C.ar  174  PHE174     -0.0042
    222  CD2        5.7840    9.4250   53.7320 C.ar  174  PHE174     -0.0042
    223  CE1        3.4100   10.4710   52.7980 C.ar  174  PHE174     -0.0003
    224  CE2        5.7260   10.7400   53.3090 C.ar  174  PHE174     -0.0003
    225  CZ         4.5380   11.2650   52.8480 C.ar  174  PHE174     -0.0000
@<TRIPOS>BOND
     1    34    35    1
     2    35    38    1
     3    35    36    1
     4    50    48    1
     5    38    39    1
     6    91    89    1
     7    85    86    1
     8    36    37    2
     9    28    27    2
    10    43    44    1
    11    86    89    1
    12    86    87    1
    13    27    26    1
    14    48    47    1
    15    89    90    1
    16    39    40    1
    17    41    40   ar
    18    44    47    1
    19    44    45    1
    20    47    49    1
    21    33    32    1
    22    40    42   ar
    23    87    88    2
    24    26    29    1
    25    26    25    1
    26    30    29    1
    27    30    31    1
    28    45    51   am
    29    45    46    2
    30    32    31    1
    31    51    52    1
    32    13    14    1
    33    53    52    1
    34    53    54    2
    35    52    55    1
    36    56    55    1
    37    56    57    1
    38   163   161   ar
    39   163   165   ar
    40    14    15    1
    41    14    17    1
    42   161   160   ar
    43    57    58    1
    44    19    17    1
    45    15    16    2
    46   165   164   ar
    47    69    67   ar
    48    69    68   ar
    49    92    93    1
    50    17    18    1
    51    99    97    1
    52   218   217    2
    53    23    22    2
    54    67    65   ar
    55    97    98    1
    56    97    96    1
    57   160   159    1
    58   160   162   ar
    59   156   159    1
    60   156   155    1
    61   156   157    1
    62    22    21    1
    63    68    66   ar
    64    59    60    1
    65   214   212   ar
    66   217   216    1
    67    12    11    2
    68    65    64   ar
    69   210   209    2
    70   169   168    2
    71   212   213   ar
    72   212   211    1
    73    66    64   ar
    74   164   162   ar
    75    11    10    1
    76   157   158    2
    77    93    96    1
    78    93    94    1
    79    64    63    1
    80   211   208    1
    81   223   225   ar
    82   223   221   ar
    83   225   224   ar
    84   216   215    1
    85   216   219    1
    86   209   215   am
    87   209   208    1
    88    60    63    1
    89    60    61    1
    90   168   167    1
    91   221   220   ar
    92    21    20    1
    93    21    24    1
    94   224   222   ar
    95   166   167    1
    96   220   222   ar
    97   220   219    1
    98    94    95    2
    99    94   100   am
   100   208   207    1
   101   167   170    1
   102    10     9    1
   103     9     3   am
   104     1     2    1
   105    61    62    2
   106     6     8    1
   107     6     5    1
   108    80    79    2
   109   207   204   am
   110   150   149    2
   111   100   106    1
   112   100   101    1
   113   154   152    1
   114   106   105    1
   115    84    82    1
   116     3     2    1
   117     3     4    2
   118    79    78    1
   119   170   171    1
   120   172   171   ar
   121   172   174   ar
   122     2     5    1
   123   171   173   ar
   124     5     7    1
   125    82    81    1
   126    82    83    1
   127   174   175   ar
   128   204   205    2
   129   204   203    1
   130   149   148    1
   131   173   175   ar
   132   105   104    1
   133   101   102    1
   134   101   104    1
   135    75    74    1
   136   152   151    1
   137   152   153    1
   138   151   148    1
   139   148   147    1
   140    81    78    1
   141   203   206    1
   142   203   202    1
   143    78    77    1
   144   102   103    2
   145   102   107   am
   146   107   108    1
   147    77    72   am
   148   186   184    1
   149   198   197    2
   150    74    76    1
   151    74    71    1
   152    73    72    2
   153   202   197   am
   154    72    71    1
   155   183   184    2
   156   183   182    1
   157   108   111    1
   158   108   109    1
   159   113   115   ar
   160   113   112   ar
   161   111   112    1
   162   197   196    1
   163   184   185    1
   164    71    70    1
   165   182   181    1
   166   115   117   ar
   167   112   114   ar
   168   200   199    1
   169   181   180    1
   170   192   193    1
   171   192   191    1
   172   193   194    1
   173   179   178    2
   174   109   119   am
   175   109   110    2
   176   124   125    1
   177   124   123    1
   178   119   120    1
   179   126   125    1
   180   199   196    1
   181   199   201    1
   182   196   195    1
   183   178   177    1
   184   117   118    1
   185   117   116   ar
   186   114   116   ar
   187   180   177    1
   188   191   188    1
   189   123   120    1
   190   120   121    1
   191   177   176    1
   192   138   136   ar
   193   187   188    1
   194   188   189    1
   195   135   136    1
   196   135   132    1
   197   122   121    2
   198   136   137   ar
   199   128   129    1
   200   128   127    1
   201   131   129   am
   202   131   132    1
   203   145   144    2
   204   129   130    2
   205   132   133    1
   206   189   190    2
   207   144   146   am
   208   144   143    1
   209   133   134    2
   210   143   140    1
   211   139   140    1
   212   140   141    1
   213   141   142    2
