@<TRIPOS>MOLECULE
tmp/3c2gA00.pdb
 189 177 0 0 0
SMALL
GASTEIGER

@<TRIPOS>ATOM
      1  N        -24.4420   40.2960   28.9800 N.3   262  LEU262     -0.1231
      2  CA       -25.6120   41.1510   29.1390 C.3   262  LEU262      0.1693
      3  C        -25.8430   41.5290   30.6010 C.2   262  LEU262      0.2592
      4  O        -26.7940   41.0760   31.2310 O.2   262  LEU262     -0.2718
      5  CB       -26.8310   40.4690   28.5160 C.3   262  LEU262      0.0284
      6  CG       -26.6160   40.0390   27.0650 C.3   262  LEU262      0.0019
      7  CD1      -27.7720   39.1690   26.6290 C.3   262  LEU262      0.0001
      8  CD2      -26.3880   41.2190   26.0950 C.3   262  LEU262      0.0001
      9  N        -24.9490   42.3550   31.1300 N.am  263  HIS263     -0.1962
     10  CA       -24.9000   42.6430   32.5620 C.3   263  HIS263      0.1787
     11  C        -25.9840   43.6100   33.0690 C.2   263  HIS263      0.2620
     12  O        -26.3650   43.5650   34.2420 O.2   263  HIS263     -0.2715
     13  CB       -23.5030   43.1410   32.9450 C.3   263  HIS263      0.0785
     14  CG       -23.0570   44.3520   32.1840 C.ar  263  HIS263      0.0821
     15  ND1      -23.0040   45.6080   32.7500 N.ar  263  HIS263     -0.2267
     16  CD2      -22.6430   44.5010   30.9010 C.ar  263  HIS263      0.1154
     17  CE1      -22.5700   46.4760   31.8500 C.ar  263  HIS263      0.1986
     18  NE2      -22.3510   45.8320   30.7180 N.ar  263  HIS263     -0.2212
     19  N        -26.4850   44.4760   32.1920 N.am  264  ASP264     -0.1957
     20  CA       -27.4320   45.5080   32.6010 C.3   264  ASP264      0.1840
     21  C        -28.5350   45.7460   31.5770 C.2   264  ASP264      0.2622
     22  O        -28.5820   45.0800   30.5360 O.2   264  ASP264     -0.2715
     23  CB       -26.6930   46.8220   32.8950 C.3   264  ASP264      0.1450
     24  CG       -26.0050   47.4130   31.6660 C.2   264  ASP264      0.3671
     25  OD1      -26.3730   47.0830   30.5180 O.co2 264  ASP264     -0.2456
     26  OD2      -25.0900   48.2340   31.8540 O.co2 264  ASP264     -0.2456
     27  N        -29.3960   46.7210   31.8890 N.am  265  SER265     -0.1950
     28  CA       -30.5620   47.0830   31.0840 C.3   265  SER265      0.1924
     29  C        -30.2510   47.4850   29.6450 C.2   265  SER265      0.2314
     30  O        -30.9990   47.1340   28.7280 O.2   265  SER265     -0.2863
     31  CB       -31.3280   48.2090   31.7720 C.3   265  SER265      0.2116
     32  OG       -31.7730   47.7830   33.0510 O.3   265  SER265     -0.2180
     33  N        -29.2560   44.1570   27.6570 N.3   268  ILE268     -0.1245
     34  CA       -30.3980   43.2840   27.3460 C.3   268  ILE268      0.1561
     35  C        -31.3590   43.9340   26.3510 C.2   268  ILE268      0.2260
     36  O        -31.9300   43.2400   25.5100 O.2   268  ILE268     -0.2867
     37  CB       -31.1490   42.7300   28.6120 C.3   268  ILE268      0.0252
     38  CG1      -32.0840   43.7820   29.2120 C.3   268  ILE268      0.0019
     39  CG2      -30.1460   42.1720   29.6490 C.3   268  ILE268      0.0019
     40  CD1      -32.8960   43.3000   30.3860 C.3   268  ILE268      0.0001
     41  N        -34.9550   34.0270   30.5060 N.3   300  LEU300     -0.1231
     42  CA       -35.2780   34.5300   31.8240 C.3   300  LEU300      0.1693
     43  C        -34.5130   35.8320   32.0810 C.2   300  LEU300      0.2591
     44  O        -35.0830   36.8200   32.5210 O.2   300  LEU300     -0.2718
     45  CB       -34.9290   33.4820   32.8860 C.3   300  LEU300      0.0284
     46  CG       -35.2880   33.8250   34.3310 C.3   300  LEU300      0.0019
     47  CD1      -36.8110   34.0410   34.4830 C.3   300  LEU300      0.0001
     48  CD2      -34.7590   32.7780   35.3390 C.3   300  LEU300      0.0001
     49  N        -33.2260   35.8320   31.7550 N.am  301  GLN301     -0.1979
     50  CA       -32.3490   36.9110   32.1280 C.3   301  GLN301      0.1601
     51  C        -32.6960   38.2080   31.4240 C.2   301  GLN301      0.2287
     52  O        -32.4330   39.2740   31.9510 O.2   301  GLN301     -0.2864
     53  CB       -30.9210   36.5240   31.7840 C.3   301  GLN301      0.0394
     54  CG       -29.8700   37.3390   32.4960 C.3   301  GLN301      0.0908
     55  CD       -28.4630   36.8990   32.1180 C.2   301  GLN301      0.2608
     56  OE1      -28.1640   35.6980   32.1220 O.2   301  GLN301     -0.2717
     57  NE2      -27.6000   37.8630   31.7730 N.am  301  GLN301     -0.0878
     58  N        -37.0630   41.1690   31.5460 N.3   304  ASP304     -0.1239
     59  CA       -37.4900   42.4740   32.0220 C.3   304  ASP304      0.1674
     60  C        -37.1730   43.6380   31.0650 C.2   304  ASP304      0.2266
     61  O        -37.3440   44.8030   31.4140 O.2   304  ASP304     -0.2867
     62  CB       -36.9620   42.7340   33.4390 C.3   304  ASP304      0.1410
     63  CG       -35.4310   42.6650   33.5350 C.2   304  ASP304      0.3668
     64  OD1      -34.8090   41.6790   33.0570 O.co2 304  ASP304     -0.2456
     65  OD2      -34.8410   43.6010   34.1250 O.co2 304  ASP304     -0.2456
     66  N        -39.4600   26.8080   35.4980 N.3   334  TYR334     -0.1241
     67  CA       -39.0490   27.9530   36.2780 C.3   334  TYR334      0.1605
     68  C        -38.6820   29.1130   35.3800 C.2   334  TYR334      0.2264
     69  O        -39.1690   30.2200   35.5930 O.2   334  TYR334     -0.2867
     70  CB       -37.8770   27.6010   37.1740 C.3   334  TYR334      0.0534
     71  CG       -37.2300   28.8010   37.8080 C.ar  334  TYR334     -0.0201
     72  CD1      -37.8980   29.5260   38.8190 C.ar  334  TYR334     -0.0009
     73  CD2      -35.9420   29.2140   37.4220 C.ar  334  TYR334     -0.0009
     74  CE1      -37.3060   30.6320   39.4170 C.ar  334  TYR334      0.0417
     75  CE2      -35.3320   30.3240   38.0210 C.ar  334  TYR334      0.0417
     76  CZ       -36.0170   31.0340   39.0130 C.ar  334  TYR334      0.1957
     77  OH       -35.4280   32.1360   39.6170 O.3   334  TYR334     -0.2866
     78  N        -41.0620   32.4510   34.6850 N.3   338  GLY338     -0.1225
     79  CA       -40.3680   33.6610   35.1030 C.3   338  GLY338      0.1811
     80  C        -40.3750   34.6670   33.9720 C.2   338  GLY338      0.2280
     81  O        -40.7030   35.8310   34.1670 O.2   338  GLY338     -0.2866
     82  N        -43.9920   36.1160   33.3590 N.3   341  SER341     -0.1202
     83  CA       -44.3650   37.1430   34.3380 C.3   341  SER341      0.2020
     84  C        -43.8210   38.5170   33.9940 C.2   341  SER341      0.2618
     85  O        -44.5380   39.4990   34.1400 O.2   341  SER341     -0.2717
     86  CB       -43.9420   36.7500   35.7470 C.3   341  SER341      0.2103
     87  OG       -42.5350   36.6500   35.8230 O.3   341  SER341     -0.2182
     88  N        -42.5720   38.5850   33.5240 N.am  342  ASN342     -0.1974
     89  CA       -41.9800   39.8600   33.1110 C.3   342  ASN342      0.1688
     90  C        -42.4680   40.3490   31.7540 C.2   342  ASN342      0.2292
     91  O        -42.6680   41.5490   31.5640 O.2   342  ASN342     -0.2864
     92  CB       -40.4540   39.7980   33.0870 C.3   342  ASN342      0.1181
     93  CG       -39.8430   39.7390   34.4700 C.2   342  ASN342      0.2629
     94  OD1      -40.4150   40.2220   35.4420 O.2   342  ASN342     -0.2716
     95  ND2      -38.6590   39.1380   34.5630 N.am  342  ASN342     -0.0877
     96  N        -45.7690   42.1180   31.7730 N.3   345  ALA345     -0.1231
     97  CA       -45.8340   43.2980   32.6470 C.3   345  ALA345      0.1694
     98  C        -45.8220   44.5960   31.8440 C.2   345  ALA345      0.2592
     99  O        -44.9130   44.8170   31.0460 O.2   345  ALA345     -0.2718
    100  CB       -44.7110   43.2820   33.6460 C.3   345  ALA345      0.0304
    101  N        -46.8520   45.4260   32.0490 N.am  346  HIS346     -0.1976
    102  CA       -46.9510   46.7790   31.4750 C.3   346  HIS346      0.1656
    103  C        -47.2330   46.8070   29.9820 C.2   346  HIS346      0.2291
    104  O        -47.0120   47.8320   29.3450 O.2   346  HIS346     -0.2864
    105  CB       -45.6740   47.6070   31.7340 C.3   346  HIS346      0.0771
    106  CG       -45.3280   47.7650   33.1820 C.ar  346  HIS346      0.0820
    107  ND1      -44.1140   47.3630   33.7030 N.ar  346  HIS346     -0.2267
    108  CD2      -46.0310   48.2820   34.2190 C.ar  346  HIS346      0.1154
    109  CE1      -44.0850   47.6270   35.0000 C.ar  346  HIS346      0.1986
    110  NE2      -45.2350   48.1840   35.3380 N.ar  346  HIS346     -0.2212
    111  N        -50.2790   40.9340   26.9390 N.3   351  LYS351     -0.1245
    112  CA       -51.3270   40.2690   27.7130 C.3   351  LYS351      0.1561
    113  C        -52.3780   39.6550   26.7820 C.2   351  LYS351      0.2260
    114  O        -52.8250   38.5150   26.9960 O.2   351  LYS351     -0.2867
    115  CB       -51.9790   41.2630   28.6680 C.3   351  LYS351      0.0271
    116  CG       -51.2300   41.4370   29.9610 C.3   351  LYS351      0.0035
    117  CD       -51.0260   42.8880   30.2990 C.3   351  LYS351      0.0206
    118  CE       -51.5600   43.1720   31.6740 C.3   351  LYS351      0.1093
    119  NZ       -50.7450   44.1310   32.4670 N.3   351  LYS351     -0.1314
    120  N        -40.6500   29.0120   43.9800 N.3   387  GLU387     -0.1245
    121  CA       -40.4000   30.0590   42.9940 C.3   387  GLU387      0.1567
    122  C        -41.2630   29.9110   41.7290 C.2   387  GLU387      0.2260
    123  O        -41.6230   30.9040   41.0920 O.2   387  GLU387     -0.2867
    124  CB       -38.9150   30.0610   42.6240 C.3   387  GLU387      0.0388
    125  CG       -37.9660   30.6000   43.7220 C.3   387  GLU387      0.1160
    126  CD       -36.5020   30.2110   43.4920 C.2   387  GLU387      0.3649
    127  OE1      -36.2420   29.1070   42.9580 O.co2 387  GLU387     -0.2457
    128  OE2      -35.6070   31.0020   43.8630 O.co2 387  GLU387     -0.2457
    129  N        -44.7720   31.0270   42.6470 N.3   390  CYS390     -0.1221
    130  CA       -44.6410   32.4580   42.8030 C.3   390  CYS390      0.1808
    131  C        -44.6350   33.1800   41.4550 C.2   390  CYS390      0.2601
    132  O        -45.3030   34.1980   41.3090 O.2   390  CYS390     -0.2717
    133  CB       -43.4030   32.7940   43.6030 C.3   390  CYS390      0.0970
    134  SG       -43.3990   34.5110   44.1010 S.3   390  CYS390     -0.0800
    135  N        -43.8960   32.6450   40.4760 N.am  391  ASN391     -0.1974
    136  CA       -43.9360   33.1570   39.1070 C.3   391  ASN391      0.1688
    137  C        -45.3310   33.1400   38.4990 C.2   391  ASN391      0.2292
    138  O        -45.7320   34.1000   37.8480 O.2   391  ASN391     -0.2864
    139  CB       -43.0270   32.3370   38.1840 C.3   391  ASN391      0.1181
    140  CG       -41.5470   32.5590   38.4500 C.2   391  ASN391      0.2629
    141  OD1      -41.1390   33.5890   38.9860 O.2   391  ASN391     -0.2716
    142  ND2      -40.7370   31.5940   38.0470 N.am  391  ASN391     -0.0877
    143  N        -47.6420   35.7550   40.1140 N.3   394  ARG394     -0.1245
    144  CA       -47.2220   37.0970   39.6960 C.3   394  ARG394      0.1563
    145  C        -47.7170   37.3800   38.2620 C.2   394  ARG394      0.2260
    146  O        -48.1240   38.4890   37.9360 O.2   394  ARG394     -0.2867
    147  CB       -45.7020   37.2450   39.8090 C.3   394  ARG394      0.0307
    148  CG       -45.2440   38.6190   40.2720 C.3   394  ARG394      0.0489
    149  CD       -43.7060   38.7280   40.4880 C.3   394  ARG394      0.2205
    150  NE       -42.9480   38.0090   39.4660 N.pl3 394  ARG394     -0.0865
    151  CZ       -42.2510   36.9020   39.7010 C.cat 394  ARG394      0.5346
    152  NH1      -42.1910   36.4050   40.9400 N.pl3 394  ARG394      0.1354
    153  NH2      -41.6200   36.2910   38.6940 N.pl3 394  ARG394      0.1354
    154  N        -51.4510   38.1190   38.5380 N.3   397  ASN397     -0.1225
    155  CA       -51.6910   39.4390   39.0960 C.3   397  ASN397      0.1785
    156  C        -51.5050   40.5510   38.0770 C.2   397  ASN397      0.2597
    157  O        -52.2450   41.5340   38.0920 O.2   397  ASN397     -0.2718
    158  CB       -50.8130   39.6670   40.3280 C.3   397  ASN397      0.1169
    159  CG       -51.1390   38.7020   41.4780 C.2   397  ASN397      0.2627
    160  OD1      -52.1280   37.9610   41.4360 O.2   397  ASN397     -0.2716
    161  ND2      -50.3020   38.7160   42.5130 N.am  397  ASN397     -0.0877
    162  N        -50.5420   40.3840   37.1740 N.am  398  ASN398     -0.1974
    163  CA       -50.3680   41.3100   36.0490 C.3   398  ASN398      0.1688
    164  C        -51.5400   41.3120   35.0680 C.2   398  ASN398      0.2292
    165  O        -51.7870   42.3190   34.4180 O.2   398  ASN398     -0.2864
    166  CB       -49.0450   41.0560   35.3250 C.3   398  ASN398      0.1181
    167  CG       -47.8360   41.4330   36.1710 C.2   398  ASN398      0.2629
    168  OD1      -47.9460   42.2380   37.1030 O.2   398  ASN398     -0.2716
    169  ND2      -46.6800   40.8370   35.8660 N.am  398  ASN398     -0.0877
    170  N        -41.7030   35.5250   49.9260 N.3   445  GLU445     -0.1245
    171  CA       -42.1320   36.2390   48.7430 C.3   445  GLU445      0.1567
    172  C        -43.3420   35.5450   48.1390 C.2   445  GLU445      0.2260
    173  O        -44.2060   36.2050   47.5640 O.2   445  GLU445     -0.2867
    174  CB       -40.9880   36.3220   47.7290 C.3   445  GLU445      0.0388
    175  CG       -41.2600   37.2570   46.5420 C.3   445  GLU445      0.1160
    176  CD       -40.0810   37.4120   45.5850 C.2   445  GLU445      0.3649
    177  OE1      -38.9080   37.3510   46.0310 O.co2 445  GLU445     -0.2457
    178  OE2      -40.3430   37.6150   44.3750 O.co2 445  GLU445     -0.2457
    179  N        -51.7360   38.8780   47.6380 N.3   452  ARG452     -0.1245
    180  CA       -52.0370   39.8050   46.5620 C.3   452  ARG452      0.1563
    181  C        -53.0110   39.1750   45.5530 C.2   452  ARG452      0.2260
    182  O        -53.9710   39.8130   45.1240 O.2   452  ARG452     -0.2867
    183  CB       -50.7480   40.2490   45.8740 C.3   452  ARG452      0.0307
    184  CG       -50.6780   41.7380   45.6370 C.3   452  ARG452      0.0489
    185  CD       -51.2110   42.1160   44.2990 C.3   452  ARG452      0.2205
    186  NE       -51.7630   43.4690   44.3030 N.pl3 452  ARG452     -0.0865
    187  CZ       -51.3000   44.4610   43.5550 C.cat 452  ARG452      0.5346
    188  NH1      -50.2620   44.2450   42.7490 N.pl3 452  ARG452      0.1354
    189  NH2      -51.8780   45.6550   43.6040 N.pl3 452  ARG452      0.1354
@<TRIPOS>BOND
     1    36    35    2
     2     8     6    1
     3    35    34    1
     4     7     6    1
     5   113   114    2
     6   113   112    1
     7   111   112    1
     8     6     5    1
     9    34    33    1
    10    34    37    1
    11   112   115    1
    12     5     2    1
    13    37    38    1
    14    37    39    1
    15   115   116    1
    16    30    29    2
    17     1     2    1
    18     2     3    1
    19    38    40    1
    20   104   103    2
    21    29    28    1
    22   116   117    1
    23   103   102    1
    24   117   118    1
    25    41    42    1
    26    25    24   ar
    27    22    21    2
    28     3     9   am
    29     3     4    2
    30    18    16   ar
    31    18    17   ar
    32    16    14   ar
    33    99    98    2
    34    60    61    2
    35    60    59    1
    36    28    31    1
    37    28    27    1
    38     9    10    1
    39    51    52    2
    40    51    50    1
    41   102   105    1
    42   102   101    1
    43    58    59    1
    44    91    90    2
    45    21    27   am
    46    21    20    1
    47    24    26   ar
    48    24    23    1
    49   118   119    1
    50   105   106    1
    51    90    89    1
    52    49    43   am
    53    49    50    1
    54    31    32    1
    55    96    97    1
    56    57    55   am
    57    53    50    1
    58    53    54    1
    59    42    43    1
    60    42    45    1
    61    98   101   am
    62    98    97    1
    63    17    15   ar
    64    59    62    1
    65    43    44    2
    66    55    56    2
    67    55    54    1
    68    14    15   ar
    69    14    13    1
    70    19    20    1
    71    19    11   am
    72    10    13    1
    73    10    11    1
    74    20    23    1
    75    97   100    1
    76    45    46    1
    77    64    63   ar
    78    11    12    2
    79    92    89    1
    80    92    93    1
    81    89    88    1
    82   106   107   ar
    83   106   108   ar
    84    82    83    1
    85    62    63    1
    86    88    84   am
    87    63    65   ar
    88   107   109   ar
    89    80    81    2
    90    80    79    1
    91    84    85    2
    92    84    83    1
    93   108   110   ar
    94    46    47    1
    95    46    48    1
    96    83    86    1
    97   165   164    2
    98    93    95   am
    99    93    94    2
   100    78    79    1
   101   109   110   ar
   102   164   163    1
   103   166   163    1
   104   166   167    1
   105    68    69    2
   106    68    67    1
   107    66    67    1
   108    86    87    1
   109   169   167   am
   110   163   162    1
   111   167   168    2
   112    67    70    1
   113   162   156   am
   114    70    71    1
   115    73    71   ar
   116    73    75   ar
   117    71    72   ar
   118   138   137    2
   119   146   145    2
   120    75    76   ar
   121   142   140   am
   122   156   157    2
   123   156   155    1
   124   139   140    1
   125   139   136    1
   126   145   144    1
   127   140   141    2
   128   137   136    1
   129   154   155    1
   130   153   151    1
   131    72    74   ar
   132    76    74   ar
   133    76    77    1
   134   155   158    1
   135   136   135    1
   136   150   151    2
   137   150   149    1
   138   144   147    1
   139   144   143    1
   140   151   152    1
   141   147   148    1
   142   148   149    1
   143   158   159    1
   144   135   131   am
   145   123   122    2
   146   132   131    2
   147   160   159    2
   148   131   130    1
   149   159   161   am
   150   122   121    1
   151   124   121    1
   152   124   125    1
   153   129   130    1
   154   188   187    1
   155   130   133    1
   156   127   126   ar
   157   121   120    1
   158   126   125    1
   159   126   128   ar
   160   187   189    1
   161   187   186    2
   162   133   134    1
   163   185   186    1
   164   185   184    1
   165   178   176   ar
   166   182   181    2
   167   181   180    1
   168   176   177   ar
   169   176   175    1
   170   184   183    1
   171   183   180    1
   172   175   174    1
   173   180   179    1
   174   173   172    2
   175   174   171    1
   176   172   171    1
   177   171   170    1
