@<TRIPOS>MOLECULE
tmp/3c2mD00.pdb
 153 145 0 0 0
SMALL
GASTEIGER

@<TRIPOS>ATOM
      1  N         -5.0090   -6.2110   44.7710 N.3   140  ARG140     -0.1245
      2  CA        -5.6280   -6.2740   43.4590 C.3   140  ARG140      0.1563
      3  C         -7.1260   -6.3000   43.7270 C.2   140  ARG140      0.2260
      4  O         -7.5530   -6.6770   44.8180 O.2   140  ARG140     -0.2867
      5  CB        -5.2040   -7.5540   42.7400 C.3   140  ARG140      0.0307
      6  CG        -3.7060   -7.6870   42.5270 C.3   140  ARG140      0.0489
      7  CD        -3.2360   -6.8040   41.4000 C.3   140  ARG140      0.2205
      8  NE        -3.9830   -7.0620   40.1730 N.pl3 140  ARG140     -0.0865
      9  CZ        -3.7480   -6.4560   39.0130 C.cat 140  ARG140      0.5346
     10  NH1       -2.7760   -5.5560   38.9200 N.pl3 140  ARG140      0.1354
     11  NH2       -4.4960   -6.7330   37.9510 N.pl3 140  ARG140      0.1354
     12  N         -9.8830    0.7150   31.1850 N.3   170  GLY170     -0.1210
     13  CA        -8.6910    0.1340   31.7670 C.3   170  GLY170      0.1956
     14  C         -8.6630   -1.3780   31.6520 C.2   170  GLY170      0.2612
     15  O         -9.3490   -1.9660   30.8130 O.2   170  GLY170     -0.2717
     16  N         -7.8600   -2.0150   32.5030 N.am  171  SER171     -0.1952
     17  CA        -7.7380   -3.4630   32.4790 C.3   171  SER171      0.1924
     18  C         -9.1080   -4.1250   32.5440 C.2   171  SER171      0.2314
     19  O         -9.3300   -5.1590   31.9210 O.2   171  SER171     -0.2863
     20  CB        -6.8570   -3.9500   33.6410 C.3   171  SER171      0.2116
     21  OG        -7.4970   -3.7720   34.8900 O.3   171  SER171     -0.2180
     22  N        -10.5210   -4.6760   29.3880 N.3   174  ARG174     -0.1245
     23  CA        -9.7000   -5.6500   28.6890 C.3   174  ARG174      0.1563
     24  C        -10.0490   -7.0710   29.1460 C.2   174  ARG174      0.2260
     25  O         -9.4280   -8.0400   28.7140 O.2   174  ARG174     -0.2867
     26  CB        -8.2060   -5.3660   28.9160 C.3   174  ARG174      0.0307
     27  CG        -7.6980   -4.0530   28.2980 C.3   174  ARG174      0.0489
     28  CD        -6.2040   -4.1200   27.9870 C.3   174  ARG174      0.2205
     29  NE        -5.3870   -4.4200   29.1640 N.pl3 174  ARG174     -0.0865
     30  CZ        -5.0880   -3.5410   30.1150 C.cat 174  ARG174      0.5346
     31  NH1       -5.5310   -2.2880   30.0370 N.pl3 174  ARG174      0.1354
     32  NH2       -4.3560   -3.9150   31.1560 N.pl3 174  ARG174      0.1354
     33  N         -8.1640   -6.1390   38.7590 N.3   179  SER179     -0.1202
     34  CA        -7.6230   -4.8590   38.3140 C.3   179  SER179      0.2020
     35  C         -6.9280   -4.1020   39.4350 C.2   179  SER179      0.2619
     36  O         -7.2550   -4.2750   40.6090 O.2   179  SER179     -0.2717
     37  CB        -8.7560   -3.9950   37.7550 C.3   179  SER179      0.2103
     38  OG        -9.4110   -4.6340   36.6720 O.3   179  SER179     -0.2182
     39  N         -5.9760   -3.2530   39.0630 N.am  180  GLY180     -0.1942
     40  CA        -5.2700   -2.4570   40.0490 C.3   180  GLY180      0.2014
     41  C         -6.1550   -1.3160   40.5090 C.2   180  GLY180      0.2638
     42  O         -6.0340   -0.8420   41.6420 O.2   180  GLY180     -0.2714
     43  N         -7.0480   -0.8690   39.6240 N.am  181  ASP181     -0.1971
     44  CA        -7.9640    0.2230   39.9520 C.3   181  ASP181      0.1709
     45  C         -9.1900    0.2450   39.0270 C.2   181  ASP181      0.2293
     46  O         -9.3790   -0.6490   38.2080 O.2   181  ASP181     -0.2864
     47  CB        -7.2420    1.5710   39.8540 C.3   181  ASP181      0.1436
     48  CG        -6.8750    1.9430   38.4150 C.2   181  ASP181      0.3671
     49  OD1       -7.2630    1.2070   37.4750 O.co2 181  ASP181     -0.2456
     50  OD2       -6.2020    2.9800   38.2250 O.co2 181  ASP181     -0.2456
     51  N        -11.1520    2.6630   36.2720 N.3   183  ASP183     -0.1239
     52  CA       -11.0850    3.8300   35.4100 C.3   183  ASP183      0.1674
     53  C        -12.4430    4.0820   34.7580 C.2   183  ASP183      0.2266
     54  O        -12.9570    3.2430   34.0110 O.2   183  ASP183     -0.2867
     55  CB       -10.0130    3.6090   34.3530 C.3   183  ASP183      0.1410
     56  CG        -8.6690    3.2640   34.9720 C.2   183  ASP183      0.3668
     57  OD1       -8.0980    4.1270   35.6640 O.co2 183  ASP183     -0.2456
     58  OD2       -8.1990    2.1280   34.7860 O.co2 183  ASP183     -0.2456
     59  N        -10.2720    6.4990   39.0590 N.3   247  ASP247     -0.1239
     60  CA        -9.9910    7.6210   38.1730 C.3   247  ASP247      0.1674
     61  C        -11.2060    7.8280   37.2940 C.2   247  ASP247      0.2266
     62  O        -11.7740    6.8700   36.7630 O.2   247  ASP247     -0.2867
     63  CB        -8.7810    7.3510   37.2760 C.3   247  ASP247      0.1410
     64  CG        -7.5250    7.0540   38.0580 C.2   247  ASP247      0.3668
     65  OD1       -7.2170    7.7990   39.0120 O.co2 247  ASP247     -0.2456
     66  OD2       -6.8410    6.0740   37.7060 O.co2 247  ASP247     -0.2456
     67  N        -12.5700   10.2650   34.0550 N.3   249  ARG249     -0.1245
     68  CA       -12.2680   11.2670   33.0470 C.3   249  ARG249      0.1563
     69  C        -13.5080   11.6780   32.2490 C.2   249  ARG249      0.2260
     70  O        -14.2020   10.8380   31.6680 O.2   249  ARG249     -0.2867
     71  CB       -11.1930   10.7700   32.0800 C.3   249  ARG249      0.0307
     72  CG        -9.8840   10.4310   32.7530 C.3   249  ARG249      0.0489
     73  CD        -8.7240   10.3840   31.7670 C.3   249  ARG249      0.2205
     74  NE        -7.4770   10.0240   32.4410 N.pl3 249  ARG249     -0.0865
     75  CZ        -6.2660   10.1640   31.9140 C.cat 249  ARG249      0.5346
     76  NH1       -6.1240   10.6670   30.6930 N.pl3 249  ARG249      0.1354
     77  NH2       -5.1950    9.7890   32.6040 N.pl3 249  ARG249      0.1354
     78  N         -7.9680    4.8790   24.0630 N.3   262  TYR262     -0.1227
     79  CA        -6.9130    5.3480   24.9560 C.3   262  TYR262      0.1736
     80  C         -7.0100    4.8670   26.3930 C.2   262  TYR262      0.2595
     81  O         -6.0590    4.2990   26.9300 O.2   262  TYR262     -0.2718
     82  CB        -6.8640    6.8750   24.9710 C.3   262  TYR262      0.0548
     83  CG        -6.0290    7.4030   26.1120 C.ar  262  TYR262     -0.0200
     84  CD1       -4.6440    7.2600   26.1110 C.ar  262  TYR262     -0.0009
     85  CD2       -6.6340    7.9800   27.2290 C.ar  262  TYR262     -0.0009
     86  CE1       -3.8800    7.6710   27.1940 C.ar  262  TYR262      0.0417
     87  CE2       -5.8800    8.3950   28.3190 C.ar  262  TYR262      0.0417
     88  CZ        -4.5070    8.2340   28.2960 C.ar  262  TYR262      0.1957
     89  OH        -3.7660    8.6120   29.3890 O.3   262  TYR262     -0.2866
     90  N         -8.1600    5.1100   27.0110 N.am  263  PHE263     -0.1962
     91  CA        -8.3960    4.7470   28.4040 C.3   263  PHE263      0.1771
     92  C         -8.5790    3.2470   28.6660 C.2   263  PHE263      0.2620
     93  O         -8.6180    2.8160   29.8200 O.2   263  PHE263     -0.2715
     94  CB        -9.6040    5.5320   28.9210 C.3   263  PHE263      0.0574
     95  CG        -9.4500    6.0290   30.3240 C.ar  263  PHE263     -0.0200
     96  CD1       -8.2130    6.4970   30.7820 C.ar  263  PHE263     -0.0042
     97  CD2      -10.5410    6.0670   31.1830 C.ar  263  PHE263     -0.0042
     98  CE1       -8.0680    6.9920   32.0670 C.ar  263  PHE263     -0.0003
     99  CE2      -10.4080    6.5670   32.4830 C.ar  263  PHE263     -0.0003
    100  CZ        -9.1680    7.0300   32.9250 C.ar  263  PHE263     -0.0000
    101  N         -8.7030    2.4560   27.6020 N.am  264  THR264     -0.1937
    102  CA        -8.8450    1.0150   27.7520 C.3   264  THR264      0.2028
    103  C         -7.4380    0.4140   27.6980 C.2   264  THR264      0.2643
    104  O         -7.1620   -0.6110   28.3210 O.2   264  THR264     -0.2714
    105  CB        -9.7250    0.3970   26.6270 C.3   264  THR264      0.1808
    106  OG1      -11.0770    0.8550   26.7640 O.3   264  THR264     -0.2208
    107  CG2       -9.7210   -1.1200   26.7130 C.3   264  THR264      0.0379
    108  N         -6.5560    1.0690   26.9520 N.am  265  GLY265     -0.1939
    109  CA        -5.1810    0.6150   26.8380 C.3   265  GLY265      0.2014
    110  C         -4.9540   -0.6830   26.0810 C.2   265  GLY265      0.2640
    111  O         -5.6890   -1.0050   25.1540 O.2   265  GLY265     -0.2714
    112  N         -3.9330   -1.4410   26.4820 N.am  266  SER266     -0.1935
    113  CA        -3.0620   -1.0800   27.6050 C.3   266  SER266      0.2055
    114  C         -2.1560    0.0880   27.2570 C.2   266  SER266      0.2643
    115  O         -2.1310    0.5410   26.1120 O.2   266  SER266     -0.2714
    116  CB        -2.1820   -2.2660   27.9900 C.3   266  SER266      0.2130
    117  OG        -1.0970   -2.3700   27.0870 O.3   266  SER266     -0.2179
    118  N         -1.4090    0.5650   28.2500 N.am  267  ASP267     -0.1971
    119  CA        -0.4840    1.6790   28.0620 C.3   267  ASP267      0.1709
    120  C          0.5090    1.3900   26.9390 C.2   267  ASP267      0.2293
    121  O          0.6960    2.2070   26.0340 O.2   267  ASP267     -0.2864
    122  CB         0.2670    1.9580   29.3710 C.3   267  ASP267      0.1436
    123  CG         1.5330    2.7730   29.1610 C.2   267  ASP267      0.3671
    124  OD1        1.4960    3.7590   28.3970 O.co2 267  ASP267     -0.2456
    125  OD2        2.5660    2.4280   29.7710 O.co2 267  ASP267     -0.2456
    126  N         -1.0920    1.4820   23.6670 N.3   270  ASN270     -0.1225
    127  CA        -1.2210    2.8600   23.2180 C.3   270  ASN270      0.1785
    128  C          0.0890    3.3520   22.6240 C.2   270  ASN270      0.2597
    129  O          0.0990    3.9820   21.5640 O.2   270  ASN270     -0.2718
    130  CB        -1.6440    3.7680   24.3770 C.3   270  ASN270      0.1169
    131  CG        -3.0630    3.5000   24.8330 C.2   270  ASN270      0.2627
    132  OD1       -3.8500    2.8760   24.1120 O.2   270  ASN270     -0.2716
    133  ND2       -3.4100    3.9870   26.0260 N.am  270  ASN270     -0.0877
    134  N          1.1940    3.0690   23.3070 N.am  271  LYS271     -0.1980
    135  CA         2.5040    3.4570   22.8080 C.3   271  LYS271      0.1596
    136  C          2.7080    2.8420   21.4210 C.2   271  LYS271      0.2287
    137  O          3.1120    3.5300   20.4800 O.2   271  LYS271     -0.2864
    138  CB         3.6030    2.9710   23.7580 C.3   271  LYS271      0.0298
    139  CG         3.9480    3.9580   24.8650 C.3   271  LYS271      0.0038
    140  CD         4.9320    3.3630   25.8740 C.3   271  LYS271      0.0206
    141  CE         5.6030    4.4520   26.7070 C.3   271  LYS271      0.1093
    142  NZ         4.6420    5.4090   27.3190 N.3   271  LYS271     -0.1314
    143  N          0.1990    4.3600   18.6600 N.3   274  ARG274     -0.1245
    144  CA         0.5510    5.7240   18.2960 C.3   274  ARG274      0.1563
    145  C          1.7940    5.7610   17.4150 C.2   274  ARG274      0.2260
    146  O          1.8380    6.5090   16.4360 O.2   274  ARG274     -0.2867
    147  CB         0.7490    6.5730   19.5530 C.3   274  ARG274      0.0307
    148  CG        -0.5160    6.6740   20.4210 C.3   274  ARG274      0.0489
    149  CD        -0.2990    7.5700   21.6280 C.3   274  ARG274      0.2205
    150  NE         0.9600    7.2540   22.2990 N.pl3 274  ARG274     -0.0865
    151  CZ         1.5060    7.9980   23.2540 C.cat 274  ARG274      0.5346
    152  NH1        0.8970    9.1040   23.6590 N.pl3 274  ARG274      0.1354
    153  NH2        2.6690    7.6470   23.7870 N.pl3 274  ARG274      0.1354
@<TRIPOS>BOND
     1   146   145    2
     2   145   144    1
     3   144   143    1
     4   144   147    1
     5   147   148    1
     6   148   149    1
     7   137   136    2
     8   136   135    1
     9   129   128    2
    10   149   150    1
    11   150   151    2
    12   128   127    1
    13   128   134   am
    14   135   134    1
    15   135   138    1
    16   127   126    1
    17   127   130    1
    18   151   152    1
    19   151   153    1
    20   138   139    1
    21    78    79    1
    22   132   131    2
    23   130   131    1
    24   131   133   am
    25   139   140    1
    26    79    82    1
    27    79    80    1
    28    82    83    1
    29   111   110    2
    30   140   141    1
    31   121   120    2
    32   110   112   am
    33   110   109    1
    34    84    83   ar
    35    84    86   ar
    36   115   114    2
    37    83    85   ar
    38    80    81    2
    39    80    90   am
    40   112   113    1
    41   105   107    1
    42   105   106    1
    43   105   102    1
    44   141   142    1
    45   109   108    1
    46   120   119    1
    47   108   103   am
    48    90    91    1
    49   117   116    1
    50    86    88   ar
    51    85    87   ar
    52   114   113    1
    53   114   118   am
    54   101   102    1
    55   101    92   am
    56   113   116    1
    57   103   102    1
    58   103   104    2
    59    28    27    1
    60    28    29    1
    61   119   118    1
    62   119   122    1
    63    88    87   ar
    64    88    89    1
    65    27    26    1
    66   124   123   ar
    67    91    92    1
    68    91    94    1
    69    92    93    2
    70    23    26    1
    71    23    24    1
    72    23    22    1
    73    25    24    2
    74    94    95    1
    75   123   122    1
    76   123   125   ar
    77    29    30    2
    78    31    30    1
    79    30    32    1
    80    95    96   ar
    81    95    97   ar
    82    76    75    1
    83    96    98   ar
    84    15    14    2
    85    97    99   ar
    86    12    13    1
    87    14    13    1
    88    14    16   am
    89    70    69    2
    90    73    74    1
    91    73    72    1
    92    75    74    2
    93    75    77    1
    94    19    18    2
    95    98   100   ar
    96    71    72    1
    97    71    68    1
    98    69    68    1
    99    17    16    1
   100    17    18    1
   101    17    20    1
   102    99   100   ar
   103    68    67    1
   104    20    21    1
   105    54    53    2
   106    55    56    1
   107    55    52    1
   108    53    52    1
   109    58    56   ar
   110    56    57   ar
   111    52    51    1
   112    38    37    1
   113    62    61    2
   114    63    64    1
   115    63    60    1
   116    61    60    1
   117    49    48   ar
   118    66    64   ar
   119    37    34    1
   120    11     9    1
   121    64    65   ar
   122    60    59    1
   123    46    45    2
   124    50    48   ar
   125    34    33    1
   126    34    35    1
   127    48    47    1
   128    10     9    1
   129     9     8    2
   130    45    44    1
   131    39    35   am
   132    39    40    1
   133    35    36    2
   134    43    44    1
   135    43    41   am
   136    47    44    1
   137    40    41    1
   138     8     7    1
   139    41    42    2
   140     7     6    1
   141     6     5    1
   142     5     2    1
   143     2     3    1
   144     2     1    1
   145     3     4    2
