@<TRIPOS>MOLECULE
tmp/3c2oA00.pdb
 98 91 0 0 0
SMALL
GASTEIGER

@<TRIPOS>ATOM
      1  N        -26.9530   15.1010    0.7080 N.3   140  GLY140     -0.1210
      2  CA       -25.8150   15.4130   -0.1120 C.3   140  GLY140      0.1956
      3  C        -25.7180   14.6960   -1.4430 C.2   140  GLY140      0.2613
      4  O        -26.7020   14.2970   -1.9900 O.2   140  GLY140     -0.2717
      5  N        -24.5040   14.5970   -1.9490 N.am  141  THR141     -0.1938
      6  CA       -24.1910   14.1290   -3.2700 C.3   141  THR141      0.2028
      7  C        -22.9110   13.3140   -3.2710 C.2   141  THR141      0.2642
      8  O        -22.4110   12.9660   -2.2550 O.2   141  THR141     -0.2714
      9  CB       -23.9570   15.2680   -4.2310 C.3   141  THR141      0.1808
     10  OG1      -22.9530   16.1120   -3.7080 O.3   141  THR141     -0.2208
     11  CG2      -25.1560   16.0250   -4.3960 C.3   141  THR141      0.0379
     12  N        -22.4060   13.0480   -4.4560 N.am  142  ARG142     -0.1963
     13  CA       -21.1780   12.3420   -4.6320 C.3   142  ARG142      0.1729
     14  C        -20.0830   13.3110   -5.0670 C.2   142  ARG142      0.2616
     15  O        -19.0060   12.9310   -5.3940 O.2   142  ARG142     -0.2715
     16  CB       -21.3510   11.2050   -5.6300 C.3   142  ARG142      0.0348
     17  CG       -21.5110    9.8490   -5.0130 C.3   142  ARG142      0.0492
     18  CD       -21.2970    8.6980   -5.9900 C.3   142  ARG142      0.2205
     19  NE       -21.8500    9.0430   -7.2560 N.pl3 142  ARG142     -0.0865
     20  CZ       -21.2290    9.0490   -8.4130 C.cat 142  ARG142      0.5346
     21  NH1      -20.0080    8.6710   -8.5510 N.pl3 142  ARG142      0.1354
     22  NH2      -21.8940    9.4290   -9.4540 N.pl3 142  ARG142      0.1354
     23  N        -20.3860   14.5830   -5.0360 N.am  143  LYS143     -0.1977
     24  CA       -19.4290   15.5620   -5.4220 C.3   143  LYS143      0.1596
     25  C        -18.5470   15.8940   -4.2510 C.2   143  LYS143      0.2287
     26  O        -18.4110   17.0100   -3.8750 O.2   143  LYS143     -0.2864
     27  CB       -20.1300   16.7940   -5.9410 C.3   143  LYS143      0.0298
     28  CG       -20.9420   16.5770   -7.1650 C.3   143  LYS143      0.0038
     29  CD       -21.8070   17.7510   -7.4610 C.3   143  LYS143      0.0206
     30  CE       -22.5330   17.5900   -8.7240 C.3   143  LYS143      0.1093
     31  NZ       -23.4720   18.6570   -8.9450 N.3   143  LYS143     -0.1314
     32  N        -27.1160   11.0240    1.5200 N.3   164  HIS164     -0.1226
     33  CA       -27.4260   10.3230    0.3110 C.3   164  HIS164      0.1752
     34  C        -26.4500    9.1750    0.0350 C.2   164  HIS164      0.2595
     35  O        -25.5570    8.9340    0.7930 O.2   164  HIS164     -0.2718
     36  CB       -27.3220   11.2640   -0.8590 C.3   164  HIS164      0.0759
     37  CG       -28.1550   10.8690   -2.0290 C.ar  164  HIS164      0.0818
     38  ND1      -29.0520   11.7190   -2.6170 N.ar  164  HIS164     -0.2268
     39  CD2      -28.2120    9.7250   -2.7350 C.ar  164  HIS164      0.1154
     40  CE1      -29.6330   11.1150   -3.6250 C.ar  164  HIS164      0.1986
     41  NE2      -29.1500    9.8990   -3.7090 N.ar  164  HIS164     -0.2212
     42  N        -26.6430    8.4890   -1.0740 N.am  165  ARG165     -0.1980
     43  CA       -25.8570    7.3290   -1.4350 C.3   165  ARG165      0.1597
     44  C        -24.3450    7.5250   -1.2410 C.2   165  ARG165      0.2287
     45  O        -23.8120    8.5650   -1.5570 O.2   165  ARG165     -0.2864
     46  CB       -26.2500    6.8890   -2.8520 C.3   165  ARG165      0.0334
     47  CG       -25.1640    6.8160   -3.8360 C.3   165  ARG165      0.0492
     48  CD       -25.4920    7.3110   -5.2170 C.3   165  ARG165      0.2205
     49  NE       -25.3760    6.2430   -6.1830 N.pl3 165  ARG165     -0.0865
     50  CZ       -25.1190    6.3700   -7.4760 C.cat 165  ARG165      0.5346
     51  NH1      -24.9100    7.5320   -8.0160 N.pl3 165  ARG165      0.1354
     52  NH2      -25.0850    5.3020   -8.2320 N.pl3 165  ARG165      0.1354
     53  N        -28.3320    4.4120   -9.3100 N.3   173  MET173     -0.1245
     54  CA       -28.9630    5.6390   -9.7790 C.3   173  MET173      0.1570
     55  C        -28.9490    5.6350  -11.2990 C.2   173  MET173      0.2261
     56  O        -27.9160    5.8740  -11.9220 O.2   173  MET173     -0.2867
     57  CB       -28.2410    6.8770   -9.2360 C.3   173  MET173      0.0387
     58  CG       -28.5760    7.1830   -7.7840 C.3   173  MET173      0.0595
     59  SD       -27.9430    8.7760   -7.2250 S.3   173  MET173     -0.1393
     60  CE       -29.3160    9.8570   -7.6220 C.3   173  MET173      0.0692
     61  N        -30.1750    6.8600  -15.1610 N.3   175  LYS175     -0.1245
     62  CA       -30.4980    8.0660  -15.9180 C.3   175  LYS175      0.1561
     63  C        -30.9480    7.6950  -17.3290 C.2   175  LYS175      0.2260
     64  O        -31.0910    6.5160  -17.6580 O.2   175  LYS175     -0.2867
     65  CB       -29.2810    8.9910  -16.0130 C.3   175  LYS175      0.0271
     66  CG       -29.0620    9.8940  -14.8130 C.3   175  LYS175      0.0035
     67  CD       -28.7100    9.1170  -13.5610 C.3   175  LYS175      0.0206
     68  CE       -28.4150   10.0660  -12.4090 C.3   175  LYS175      0.1093
     69  NZ       -28.0540    9.3480  -11.1560 N.3   175  LYS175     -0.1314
     70  N        -36.0990   10.5420   -9.0990 N.3   224  MET224     -0.1245
     71  CA       -35.5560   11.8890   -9.0780 C.3   224  MET224      0.1570
     72  C        -36.2260   12.6710  -10.1940 C.2   224  MET224      0.2261
     73  O        -36.2650   12.2240  -11.3420 O.2   224  MET224     -0.2867
     74  CB       -34.0420   11.8750   -9.2930 C.3   224  MET224      0.0387
     75  CG       -33.4260   13.2650   -9.2650 C.3   224  MET224      0.0595
     76  SD       -31.6290   13.2800   -9.2740 S.3   224  MET224     -0.1393
     77  CE       -31.3010   13.5710  -10.9910 C.3   224  MET224      0.0692
     78  N        -37.5800   12.7000   -5.0460 N.3   232  GLU232     -0.1245
     79  CA       -36.4620   13.5880   -4.7890 C.3   232  GLU232      0.1567
     80  C        -36.2280   14.6110   -5.8880 C.2   232  GLU232      0.2260
     81  O        -36.4470   14.3450   -7.0680 O.2   232  GLU232     -0.2867
     82  CB       -35.1880   12.7600   -4.5700 C.3   232  GLU232      0.0388
     83  CG       -33.9090   13.4120   -5.0880 C.3   232  GLU232      0.1160
     84  CD       -32.6540   12.6520   -4.6950 C.2   232  GLU232      0.3649
     85  OE1      -32.6210   11.4100   -4.8130 O.co2 232  GLU232     -0.2457
     86  OE2      -31.6890   13.3050   -4.2750 O.co2 232  GLU232     -0.2457
     87  N        -33.3600   17.4200   -7.1890 N.3   234  SER234     -0.1217
     88  CA       -31.9690   17.7200   -7.0360 C.3   234  SER234      0.1889
     89  C        -31.6080   19.0330   -7.6660 C.2   234  SER234      0.2288
     90  O        -31.7130   19.1850   -8.8480 O.2   234  SER234     -0.2866
     91  CB       -31.1210   16.6200   -7.6340 C.3   234  SER234      0.2089
     92  OG       -29.7650   16.8330   -7.3420 O.3   234  SER234     -0.2183
     93  N        -31.7620   17.1690   -2.8390 N.3   247  SER247     -0.1217
     94  CA       -30.3190   16.9790   -2.8930 C.3   247  SER247      0.1889
     95  C        -29.5930   18.2240   -3.3380 C.2   247  SER247      0.2288
     96  O        -30.0160   18.8880   -4.2840 O.2   247  SER247     -0.2866
     97  CB       -29.9610   15.8320   -3.8450 C.3   247  SER247      0.2089
     98  OG       -30.0870   14.5840   -3.1920 O.3   247  SER247     -0.2183
@<TRIPOS>BOND
     1    64    63    2
     2    63    62    1
     3    65    62    1
     4    65    66    1
     5    62    61    1
     6    66    67    1
     7    67    68    1
     8    68    69    1
     9    56    55    2
    10    73    72    2
    11    55    54    1
    12    77    76    1
    13    72    71    1
    14    54    53    1
    15    54    57    1
    16    22    20    1
    17    74    75    1
    18    74    71    1
    19    76    75    1
    20    57    58    1
    21    70    71    1
    22    31    30    1
    23    90    89    2
    24    30    29    1
    25    21    20    1
    26    20    19    2
    27    52    50    1
    28    51    50    1
    29    58    59    1
    30    89    88    1
    31    91    92    1
    32    91    88    1
    33    60    59    1
    34    50    49    2
    35    29    28    1
    36    19    18    1
    37    87    88    1
    38    28    27    1
    39    81    80    2
    40    49    48    1
    41    18    17    1
    42    27    24    1
    43    80    79    1
    44    16    17    1
    45    16    13    1
    46    24    23    1
    47    24    25    1
    48    15    14    2
    49    48    47    1
    50    83    84    1
    51    83    82    1
    52    14    23   am
    53    14    13    1
    54    78    79    1
    55    85    84   ar
    56    79    82    1
    57    84    86   ar
    58    13    12    1
    59    12     7   am
    60    11     9    1
    61    96    95    2
    62    25    26    2
    63     9    10    1
    64     9     6    1
    65    97    98    1
    66    97    94    1
    67    47    46    1
    68    41    40   ar
    69    41    39   ar
    70    40    38   ar
    71    95    94    1
    72     7     6    1
    73     7     8    2
    74     6     5    1
    75    94    93    1
    76    46    43    1
    77    39    37   ar
    78    38    37   ar
    79    37    36    1
    80     4     3    2
    81     5     3   am
    82    45    44    2
    83     3     2    1
    84    43    44    1
    85    43    42    1
    86    42    34   am
    87    36    33    1
    88     2     1    1
    89    34    33    1
    90    34    35    2
    91    33    32    1
