@<TRIPOS>MOLECULE
tmp/3c2uA00.pdb
 181 176 0 0 0
SMALL
GASTEIGER

@<TRIPOS>ATOM
      1  N         58.3570   29.9080   54.7140 N.3    14  ASP14      -0.1239
      2  CA        59.7590   30.1220   54.9790 C.3    14  ASP14       0.1674
      3  C         60.2630   29.3320   56.1930 C.2    14  ASP14       0.2266
      4  O         60.8340   29.9100   57.1030 O.2    14  ASP14      -0.2867
      5  CB        60.0210   31.5950   55.1990 C.3    14  ASP14       0.1410
      6  CG        59.6180   32.4600   54.0060 C.2    14  ASP14       0.3668
      7  OD1       59.7950   31.9630   52.8500 O.co2  14  ASP14      -0.2456
      8  OD2       59.1030   33.5830   54.2750 O.co2  14  ASP14      -0.2456
      9  N         55.0670   38.1500   58.8130 N.3    31  PHE31      -0.1241
     10  CA        54.7780   39.4080   58.0510 C.3    31  PHE31       0.1605
     11  C         54.1470   40.3920   59.0010 C.2    31  PHE31       0.2264
     12  O         54.7680   40.7030   60.0240 O.2    31  PHE31      -0.2867
     13  CB        54.0110   39.0960   56.7500 C.3    31  PHE31       0.0534
     14  CG        54.8290   38.2060   55.8650 C.ar   31  PHE31      -0.0203
     15  CD1       54.8150   36.8230   56.0480 C.ar   31  PHE31      -0.0042
     16  CD2       55.7350   38.7450   54.9670 C.ar   31  PHE31      -0.0042
     17  CE1       55.6650   35.9890   55.3240 C.ar   31  PHE31      -0.0003
     18  CE2       56.6000   37.9070   54.2560 C.ar   31  PHE31      -0.0003
     19  CZ        56.5740   36.5320   54.4910 C.ar   31  PHE31      -0.0000
     20  N         59.7660   38.7920   57.5040 N.3    73  TRP73      -0.1227
     21  CA        60.0160   37.9190   56.3620 C.3    73  TRP73       0.1737
     22  C         60.6890   36.6420   56.8840 C.2    73  TRP73       0.2595
     23  O         60.5170   36.2690   58.0420 O.2    73  TRP73      -0.2718
     24  CB        60.8120   38.6980   55.2840 C.3    73  TRP73       0.0564
     25  CG        59.9510   39.5980   54.4610 C.ar   73  TRP73       0.0003
     26  CD1       58.7620   40.1570   54.8170 C.ar   73  TRP73       0.0946
     27  CD2       60.1740   39.9830   53.1040 C.ar   73  TRP73       0.0152
     28  NE1       58.2310   40.8540   53.7760 N.ar   73  TRP73      -0.2442
     29  CE2       59.0990   40.7850   52.7170 C.ar   73  TRP73       0.0810
     30  CE3       61.2230   39.8070   52.2070 C.ar   73  TRP73       0.0012
     31  CZ2       58.9970   41.3250   51.4300 C.ar   73  TRP73       0.0191
     32  CZ3       61.1340   40.3340   50.9680 C.ar   73  TRP73       0.0001
     33  CH2       60.0630   41.1170   50.5790 C.ar   73  TRP73       0.0015
     34  N         61.3550   35.8830   56.0400 N.am   74  ALA74      -0.1980
     35  CA        61.8680   34.5750   56.4800 C.3    74  ALA74       0.1597
     36  C         62.7250   34.7190   57.7290 C.2    74  ALA74       0.2287
     37  O         63.6830   35.5060   57.7180 O.2    74  ALA74      -0.2864
     38  CB        62.7130   33.9340   55.3760 C.3    74  ALA74       0.0319
     39  N         63.9880   47.4570   48.7130 N.3    99  LYS99      -0.1245
     40  CA        63.3070   46.5540   49.6140 C.3    99  LYS99       0.1561
     41  C         63.8480   46.8350   51.0320 C.2    99  LYS99       0.2260
     42  O         64.3220   45.9440   51.7410 O.2    99  LYS99      -0.2867
     43  CB        63.5140   45.0870   49.2510 C.3    99  LYS99       0.0271
     44  CG        62.3880   44.2280   49.8660 C.3    99  LYS99       0.0035
     45  CD        61.1850   44.1230   48.9220 C.3    99  LYS99       0.0206
     46  CE        61.4030   43.2180   47.7720 C.3    99  LYS99       0.1093
     47  NZ        60.4110   43.3770   46.6860 N.3    99  LYS99      -0.1314
     48  N         67.3500   40.8410   52.7040 N.3   126  PHE126     -0.1227
     49  CA        66.5390   40.0020   53.5800 C.3   126  PHE126      0.1736
     50  C         67.1120   38.5740   53.5780 C.2   126  PHE126      0.2595
     51  O         68.1860   38.2990   52.9860 O.2   126  PHE126     -0.2718
     52  CB        65.0620   40.1080   53.1910 C.3   126  PHE126      0.0547
     53  CG        64.8410   40.0140   51.7250 C.ar  126  PHE126     -0.0202
     54  CD1       64.7130   38.7760   51.0890 C.ar  126  PHE126     -0.0042
     55  CD2       64.7560   41.1620   50.9490 C.ar  126  PHE126     -0.0042
     56  CE1       64.5460   38.6960   49.7220 C.ar  126  PHE126     -0.0003
     57  CE2       64.6100   41.0750   49.5940 C.ar  126  PHE126     -0.0003
     58  CZ        64.5020   39.8490   48.9760 C.ar  126  PHE126     -0.0000
     59  N         66.4330   37.6900   54.3050 N.am  127  ASP127     -0.1974
     60  CA        66.8120   36.2900   54.3940 C.3   127  ASP127      0.1709
     61  C         68.1810   36.0880   55.0580 C.2   127  ASP127      0.2293
     62  O         68.9740   35.2270   54.6630 O.2   127  ASP127     -0.2864
     63  CB        66.7190   35.6050   53.0460 C.3   127  ASP127      0.1436
     64  CG        65.2940   35.4270   52.5650 C.2   127  ASP127      0.3671
     65  OD1       64.3780   35.9370   53.2390 O.co2 127  ASP127     -0.2456
     66  OD2       65.1380   34.8690   51.4540 O.co2 127  ASP127     -0.2456
     67  N         68.4030   40.5190   42.6360 N.3   154  PHE154     -0.1241
     68  CA        68.9680   39.5180   43.5430 C.3   154  PHE154      0.1605
     69  C         70.4130   39.3160   43.1060 C.2   154  PHE154      0.2264
     70  O         70.7150   38.5240   42.2110 O.2   154  PHE154     -0.2867
     71  CB        68.1270   38.2560   43.4660 C.3   154  PHE154      0.0534
     72  CG        66.7450   38.3970   44.0910 C.ar  154  PHE154     -0.0203
     73  CD1       65.7900   39.2310   43.5280 C.ar  154  PHE154     -0.0042
     74  CD2       66.4050   37.7460   45.2800 C.ar  154  PHE154     -0.0042
     75  CE1       64.5490   39.3800   44.1650 C.ar  154  PHE154     -0.0003
     76  CE2       65.2020   37.9260   45.9000 C.ar  154  PHE154     -0.0003
     77  CZ        64.2490   38.7170   45.3450 C.ar  154  PHE154     -0.0000
     78  N         66.4900   34.8610   41.3320 N.3   184  TYR184     -0.1241
     79  CA        65.8040   35.1640   42.5900 C.3   184  TYR184      0.1605
     80  C         66.5190   34.4470   43.7410 C.2   184  TYR184      0.2264
     81  O         65.8940   33.9140   44.6490 O.2   184  TYR184     -0.2867
     82  CB        64.3220   34.8230   42.5690 C.3   184  TYR184      0.0534
     83  CG        63.4420   35.6540   41.6620 C.ar  184  TYR184     -0.0201
     84  CD1       62.8990   35.1290   40.5120 C.ar  184  TYR184     -0.0009
     85  CD2       63.0640   36.9520   42.0070 C.ar  184  TYR184     -0.0009
     86  CE1       62.0550   35.8880   39.7030 C.ar  184  TYR184      0.0417
     87  CE2       62.1980   37.6960   41.2600 C.ar  184  TYR184      0.0417
     88  CZ        61.6860   37.1590   40.1210 C.ar  184  TYR184      0.1957
     89  OH        60.8440   37.9290   39.3510 O.3   184  TYR184     -0.2866
     90  N         67.8690   33.5350   47.0160 N.3   186  GLU186     -0.1245
     91  CA        67.5570   34.0240   48.3290 C.3   186  GLU186      0.1567
     92  C         67.5620   32.8340   49.3020 C.2   186  GLU186      0.2260
     93  O         68.0820   31.7640   49.0240 O.2   186  GLU186     -0.2867
     94  CB        66.2130   34.7870   48.2950 C.3   186  GLU186      0.0388
     95  CG        65.0010   33.9080   47.9870 C.3   186  GLU186      0.1160
     96  CD        63.6610   34.6380   47.8240 C.2   186  GLU186      0.3649
     97  OE1       63.5400   35.7850   48.2800 O.co2 186  GLU186     -0.2457
     98  OE2       62.6950   33.9870   47.2960 O.co2 186  GLU186     -0.2457
     99  N         61.7850   32.5170   42.7880 N.3   205  GLY205     -0.1210
    100  CA        60.7010   33.2500   43.4150 C.3   205  GLY205      0.1956
    101  C         59.6440   32.3230   43.9570 C.2   205  GLY205      0.2613
    102  O         59.5030   31.2310   43.4560 O.2   205  GLY205     -0.2717
    103  N         58.9290   32.8160   44.9440 N.am  206  THR206     -0.1938
    104  CA        58.0250   32.0150   45.7370 C.3   206  THR206      0.2028
    105  C         56.6680   31.7170   45.0770 C.2   206  THR206      0.2642
    106  O         55.6590   31.5520   45.7480 O.2   206  THR206     -0.2714
    107  CB        57.8300   32.6400   47.1150 C.3   206  THR206      0.1808
    108  OG1       57.1600   31.7230   47.9930 O.3   206  THR206     -0.2208
    109  CG2       57.0690   33.9260   47.0350 C.3   206  THR206      0.0379
    110  N         56.6620   31.6980   43.7650 N.am  207  THR207     -0.1950
    111  CA        55.5540   31.4040   42.9140 C.3   207  THR207      0.1897
    112  C         55.6200   29.9490   42.4340 C.2   207  THR207      0.2313
    113  O         56.2820   29.1370   43.0500 O.2   207  THR207     -0.2863
    114  CB        55.6670   32.3520   41.6940 C.3   207  THR207      0.1794
    115  OG1       56.8710   32.0010   40.9750 O.3   207  THR207     -0.2208
    116  CG2       55.6870   33.8360   42.1110 C.3   207  THR207      0.0378
    117  N         59.1630   28.4380   41.9200 N.3   210  HIS210     -0.1241
    118  CA        60.0410   28.2660   43.0700 C.3   210  HIS210      0.1621
    119  C         60.8390   26.9700   43.0000 C.2   210  HIS210      0.2264
    120  O         60.3680   25.9520   42.4800 O.2   210  HIS210     -0.2867
    121  CB        59.1560   28.2130   44.3270 C.3   210  HIS210      0.0745
    122  CG        59.7820   28.7610   45.5840 C.ar  210  HIS210      0.0817
    123  ND1       59.1920   28.5540   46.8040 N.ar  210  HIS210     -0.2268
    124  CD2       60.8850   29.5250   45.8300 C.ar  210  HIS210      0.1154
    125  CE1       59.8740   29.2070   47.7440 C.ar  210  HIS210      0.1986
    126  NE2       60.9240   29.7970   47.1890 N.ar  210  HIS210     -0.2212
    127  N         62.4330   27.4960   49.3950 N.3   248  HIS248     -0.1241
    128  CA        62.7240   28.1130   50.7000 C.3   248  HIS248      0.1621
    129  C         62.8660   27.1020   51.7960 C.2   248  HIS248      0.2264
    130  O         62.0790   27.0700   52.7520 O.2   248  HIS248     -0.2867
    131  CB        61.7690   29.2110   51.1200 C.3   248  HIS248      0.0745
    132  CG        62.4950   30.2540   51.8890 C.ar  248  HIS248      0.0817
    133  ND1       63.0500   30.0810   53.1480 N.ar  248  HIS248     -0.2268
    134  CD2       62.9050   31.4630   51.4630 C.ar  248  HIS248      0.1154
    135  CE1       63.7260   31.1770   53.4710 C.ar  248  HIS248      0.1986
    136  NE2       63.6360   32.0280   52.4690 N.ar  248  HIS248     -0.2212
    137  N         58.6530   25.4500   52.0840 N.3   264  LEU264     -0.1245
    138  CA        57.3210   25.9720   51.8720 C.3   264  LEU264      0.1561
    139  C         56.6870   25.3690   50.6190 C.2   264  LEU264      0.2260
    140  O         57.3600   24.8560   49.7080 O.2   264  LEU264     -0.2867
    141  CB        57.2860   27.5090   51.9090 C.3   264  LEU264      0.0270
    142  CG        57.7690   28.3130   50.7170 C.3   264  LEU264      0.0019
    143  CD1       56.7790   28.2700   49.5500 C.3   264  LEU264      0.0001
    144  CD2       58.0320   29.7790   51.1110 C.3   264  LEU264      0.0001
    145  N         51.2000   29.9530   51.8750 N.3   290  ARG290     -0.1245
    146  CA        52.3290   29.0670   51.8400 C.3   290  ARG290      0.1563
    147  C         52.4300   28.3440   53.1660 C.2   290  ARG290      0.2260
    148  O         52.5660   28.9990   54.1760 O.2   290  ARG290     -0.2867
    149  CB        53.5940   29.8600   51.4790 C.3   290  ARG290      0.0307
    150  CG        53.5280   30.5150   50.0890 C.3   290  ARG290      0.0489
    151  CD        54.6640   31.4510   49.8390 C.3   290  ARG290      0.2205
    152  NE        54.6300   32.5160   50.8490 N.pl3 290  ARG290     -0.0865
    153  CZ        55.6830   33.2340   51.2280 C.cat 290  ARG290      0.5346
    154  NH1       55.5920   34.1510   52.1850 N.pl3 290  ARG290      0.1354
    155  NH2       56.8340   33.0840   50.6090 N.pl3 290  ARG290      0.1354
    156  N         53.0790   44.3130   45.5750 N.3   505  GLY505     -0.1225
    157  CA        54.3020   43.5550   45.6710 C.3   505  GLY505      0.1811
    158  C         54.4150   42.5510   46.7630 C.2   505  GLY505      0.2280
    159  O         55.3160   41.7110   46.7500 O.2   505  GLY505     -0.2866
    160  N         52.6150   39.5600   48.7130 N.3   507  PHE507     -0.1227
    161  CA        51.5310   38.5650   48.5550 C.3   507  PHE507      0.1736
    162  C         51.8590   37.2740   49.3430 C.2   507  PHE507      0.2595
    163  O         51.8490   36.1690   48.7980 O.2   507  PHE507     -0.2718
    164  CB        51.2640   38.2560   47.0670 C.3   507  PHE507      0.0547
    165  CG        52.5080   37.9220   46.2560 C.ar  507  PHE507     -0.0202
    166  CD1       52.8450   36.6110   45.9400 C.ar  507  PHE507     -0.0042
    167  CD2       53.3370   38.8930   45.7880 C.ar  507  PHE507     -0.0042
    168  CE1       53.9530   36.3200   45.2190 C.ar  507  PHE507     -0.0003
    169  CE2       54.4630   38.5870   45.0410 C.ar  507  PHE507     -0.0003
    170  CZ        54.7600   37.3130   44.7540 C.ar  507  PHE507     -0.0000
    171  N         52.2330   37.4500   50.6010 N.am  508  PHE508     -0.1976
    172  CA        53.0480   36.5130   51.3450 C.3   508  PHE508      0.1639
    173  C         52.4140   35.9140   52.5810 C.2   508  PHE508      0.2290
    174  O         53.0880   35.2050   53.3200 O.2   508  PHE508     -0.2864
    175  CB        54.3650   37.2090   51.7400 C.3   508  PHE508      0.0560
    176  CG        55.1560   37.7380   50.5660 C.ar  508  PHE508     -0.0200
    177  CD1       55.2770   36.9920   49.4030 C.ar  508  PHE508     -0.0042
    178  CD2       55.7610   38.9610   50.6070 C.ar  508  PHE508     -0.0042
    179  CE1       55.9110   37.4930   48.3070 C.ar  508  PHE508     -0.0003
    180  CE2       56.4060   39.4700   49.5040 C.ar  508  PHE508     -0.0003
    181  CZ        56.5020   38.6960   48.3680 C.ar  508  PHE508     -0.0000
@<TRIPOS>BOND
     1    89    88    1
     2    86    88   ar
     3    86    84   ar
     4    88    87   ar
     5    84    83   ar
     6   115   114    1
     7    87    85   ar
     8    78    79    1
     9    83    85   ar
    10    83    82    1
    11   114   116    1
    12   114   111    1
    13   117   118    1
    14    70    69    2
    15   112   111    1
    16   112   113    2
    17   120   119    2
    18    82    79    1
    19    79    80    1
    20    67    68    1
    21    99   100    1
    22   111   110    1
    23   119   118    1
    24   118   121    1
    25    69    68    1
    26   100   101    1
    27   102   101    2
    28    71    68    1
    29    71    72    1
    30    73    72   ar
    31    73    75   ar
    32    80    81    2
    33   110   105   am
    34   101   103   am
    35    72    74   ar
    36    75    77   ar
    37   121   122    1
    38   170   169   ar
    39   170   168   ar
    40   103   104    1
    41   169   167   ar
    42   105   104    1
    43   105   106    2
    44   168   166   ar
    45    74    76   ar
    46    77    76   ar
    47   156   157    1
    48   122   124   ar
    49   122   123   ar
    50   157   158    1
    51   104   107    1
    52   167   165   ar
    53   124   126   ar
    54   166   165   ar
    55   165   164    1
    56    47    46    1
    57   159   158    2
    58   123   125   ar
    59    90    91    1
    60   109   107    1
    61   164   161    1
    62   107   108    1
    63   126   125   ar
    64    98    96   ar
    65    46    45    1
    66    96    95    1
    67    96    97   ar
    68    95    94    1
    69    94    91    1
    70   179   181   ar
    71   179   177   ar
    72    91    92    1
    73   181   180   ar
    74   161   160    1
    75   161   162    1
    76    39    40    1
    77   163   162    2
    78    45    44    1
    79    58    57   ar
    80    58    56   ar
    81    93    92    2
    82    43    40    1
    83    43    44    1
    84   162   171   am
    85   127   128    1
    86   177   176   ar
    87   180   178   ar
    88   143   142    1
    89    57    55   ar
    90    40    41    1
    91   140   139    2
    92    56    54   ar
    93   151   150    1
    94   151   152    1
    95   150   149    1
    96   176   178   ar
    97   176   175    1
    98    33    32   ar
    99    33    31   ar
   100   171   172    1
   101   155   153    1
   102   139   138    1
   103   128   131    1
   104   128   129    1
   105   142   144    1
   106   142   141    1
   107   152   153    2
   108    55    53   ar
   109    32    30   ar
   110    41    42    2
   111    54    53   ar
   112   131   132    1
   113   153   154    1
   114   172   175    1
   115   172   173    1
   116    31    29   ar
   117    66    64   ar
   118   134   132   ar
   119   134   136   ar
   120   149   146    1
   121    53    52    1
   122   129   130    2
   123   146   145    1
   124   146   147    1
   125   138   141    1
   126   138   137    1
   127   132   133   ar
   128    30    27   ar
   129   136   135   ar
   130    64    63    1
   131    64    65   ar
   132   173   174    2
   133    48    49    1
   134    29    27   ar
   135    29    28   ar
   136     7     6   ar
   137    51    50    2
   138    63    60    1
   139    27    25   ar
   140   133   135   ar
   141   147   148    2
   142    52    49    1
   143    50    49    1
   144    50    59   am
   145    28    26   ar
   146     6     8   ar
   147     6     5    1
   148    18    19   ar
   149    18    16   ar
   150    59    60    1
   151    60    61    1
   152    25    26   ar
   153    25    24    1
   154    19    17   ar
   155    62    61    2
   156     1     2    1
   157    16    14   ar
   158     2     5    1
   159     2     3    1
   160    24    21    1
   161    17    15   ar
   162    38    35    1
   163    14    15   ar
   164    14    13    1
   165    34    35    1
   166    34    22   am
   167     3     4    2
   168    21    22    1
   169    21    20    1
   170    35    36    1
   171    13    10    1
   172    22    23    2
   173    37    36    2
   174    10     9    1
   175    10    11    1
   176    11    12    2
