@<TRIPOS>MOLECULE
tmp/3c2vA00.pdb
 114 105 0 0 0
SMALL
GASTEIGER

@<TRIPOS>ATOM
      1  N        -24.4170  -14.5940   36.5900 N.3   141  THR141     -0.1218
      2  CA       -24.1850  -13.9960   37.9110 C.3   141  THR141      0.1862
      3  C        -22.8570  -13.2380   37.9470 C.2   141  THR141      0.2287
      4  O        -22.2410  -12.9950   36.9030 O.2   141  THR141     -0.2866
      5  CB       -24.1050  -15.0830   38.9840 C.3   141  THR141      0.1770
      6  OG1      -22.9680  -15.9170   38.7230 O.3   141  THR141     -0.2211
      7  CG2      -25.3340  -15.9440   38.9640 C.3   141  THR141      0.0375
      8  N        -20.3910  -14.4350   39.7980 N.3   143  LYS143     -0.1245
      9  CA       -19.4440  -15.4610   40.2080 C.3   143  LYS143      0.1561
     10  C        -18.5800  -15.7990   39.0010 C.2   143  LYS143      0.2260
     11  O        -18.5660  -16.9340   38.5160 O.2   143  LYS143     -0.2867
     12  CB       -20.1910  -16.7090   40.6750 C.3   143  LYS143      0.0271
     13  CG       -21.1260  -16.4660   41.8460 C.3   143  LYS143      0.0035
     14  CD       -21.7860  -17.7610   42.2990 C.3   143  LYS143      0.0206
     15  CE       -22.7580  -17.5140   43.4350 C.3   143  LYS143      0.1093
     16  NZ       -23.4890  -18.7570   43.8020 N.3   143  LYS143     -0.1314
     17  N        -29.1780   -7.7620   48.5840 N.3   175  LYS175     -0.1231
     18  CA       -29.1820   -9.1540   48.8750 C.3   175  LYS175      0.1693
     19  C        -29.3880   -9.4250   50.3350 C.2   175  LYS175      0.2592
     20  O        -29.4350   -8.5220   51.1400 O.2   175  LYS175     -0.2718
     21  CB       -27.8760   -9.7620   48.4190 C.3   175  LYS175      0.0285
     22  CG       -27.7860   -9.8950   46.9530 C.3   175  LYS175      0.0035
     23  CD       -26.4470  -10.3690   46.5220 C.3   175  LYS175      0.0206
     24  CE       -26.3420  -10.2920   45.0520 C.3   175  LYS175      0.1093
     25  NZ       -25.3530  -11.2160   44.5630 N.3   175  LYS175     -0.1314
     26  N        -29.4990  -10.7050   50.6510 N.am  176  ASP176     -0.1974
     27  CA       -29.9870  -11.1610   51.9350 C.3   176  ASP176      0.1709
     28  C        -29.2370  -10.4660   53.0380 C.2   176  ASP176      0.2293
     29  O        -28.0330  -10.4800   53.0590 O.2   176  ASP176     -0.2864
     30  CB       -29.8340  -12.6710   52.0510 C.3   176  ASP176      0.1436
     31  CG       -28.4120  -13.1160   51.9250 C.2   176  ASP176      0.3671
     32  OD1      -27.5310  -12.2760   51.7170 O.co2 176  ASP176     -0.2456
     33  OD2      -28.1610  -14.3120   52.0330 O.co2 176  ASP176     -0.2456
     34  N        -33.8080   -8.7860   47.1210 N.3   205  GLU205     -0.1245
     35  CA       -33.9480  -10.2120   47.3740 C.3   205  GLU205      0.1567
     36  C        -34.9240  -10.3800   48.5340 C.2   205  GLU205      0.2260
     37  O        -34.5190  -10.3370   49.6930 O.2   205  GLU205     -0.2867
     38  CB       -32.5930  -10.7950   47.7500 C.3   205  GLU205      0.0388
     39  CG       -32.6080  -12.2730   48.0370 C.3   205  GLU205      0.1160
     40  CD       -31.2480  -12.7700   48.4690 C.2   205  GLU205      0.3649
     41  OE1      -30.2660  -12.5220   47.7340 O.co2 205  GLU205     -0.2457
     42  OE2      -31.1590  -13.4050   49.5390 O.co2 205  GLU205     -0.2457
     43  N        -36.1670  -10.4700   43.6850 N.3   224  MET224     -0.1245
     44  CA       -35.4220  -11.7200   43.7690 C.3   224  MET224      0.1570
     45  C        -36.0300  -12.4980   44.9260 C.2   224  MET224      0.2261
     46  O        -36.0470  -12.0140   46.0560 O.2   224  MET224     -0.2867
     47  CB       -33.9530  -11.4020   44.0570 C.3   224  MET224      0.0387
     48  CG       -33.1400  -12.5250   44.6870 C.3   224  MET224      0.0595
     49  SD       -32.2950  -13.5900   43.5160 S.3   224  MET224     -0.1393
     50  CE       -30.7750  -12.7330   43.3110 C.3   224  MET224      0.0692
     51  N        -35.2940  -16.0720   45.5170 N.3   226  ASP226     -0.1239
     52  CA       -34.2720  -17.0060   45.9750 C.3   226  ASP226      0.1674
     53  C        -34.7680  -18.2190   46.7740 C.2   226  ASP226      0.2266
     54  O        -34.0280  -18.7580   47.6010 O.2   226  ASP226     -0.2867
     55  CB       -33.2450  -16.2420   46.8190 C.3   226  ASP226      0.1410
     56  CG       -31.8100  -16.5950   46.4640 C.2   226  ASP226      0.3668
     57  OD1      -30.9120  -16.1940   47.2380 O.co2 226  ASP226     -0.2456
     58  OD2      -31.5760  -17.2540   45.4260 O.co2 226  ASP226     -0.2456
     59  N        -33.6220  -17.4560   41.6790 N.3   234  SER234     -0.1202
     60  CA       -32.2150  -17.8270   41.5910 C.3   234  SER234      0.2020
     61  C        -31.7970  -18.8130   42.6620 C.2   234  SER234      0.2619
     62  O        -32.4170  -18.8780   43.7220 O.2   234  SER234     -0.2717
     63  CB       -31.3430  -16.5760   41.7030 C.3   234  SER234      0.2103
     64  OG       -29.9640  -16.9110   41.7260 O.3   234  SER234     -0.2182
     65  N        -30.7490  -19.5840   42.3810 N.am  235  GLY235     -0.1942
     66  CA       -30.2570  -20.5370   43.3570 C.3   235  GLY235      0.2014
     67  C        -30.2340  -22.0100   42.9780 C.2   235  GLY235      0.2639
     68  O        -31.2770  -22.6590   42.8930 O.2   235  GLY235     -0.2714
     69  N        -29.0320  -22.5320   42.7530 N.am  236  GLY236     -0.1939
     70  CA       -28.8610  -23.9350   42.4200 C.3   236  GLY236      0.2014
     71  C        -29.5990  -24.5060   41.2270 C.2   236  GLY236      0.2638
     72  O        -29.9500  -25.6830   41.2300 O.2   236  GLY236     -0.2714
     73  N        -29.8390  -23.6990   40.2050 N.am  237  LEU237     -0.1977
     74  CA       -30.5230  -24.2080   39.0250 C.3   237  LEU237      0.1596
     75  C        -29.4650  -24.7370   38.0570 C.2   237  LEU237      0.2287
     76  O        -28.3420  -24.2350   38.0250 O.2   237  LEU237     -0.2864
     77  CB       -31.3290  -23.0990   38.3510 C.3   237  LEU237      0.0297
     78  CG       -31.8740  -21.9860   39.2450 C.3   237  LEU237      0.0022
     79  CD1      -32.6470  -21.0050   38.3800 C.3   237  LEU237      0.0001
     80  CD2      -32.7600  -22.5570   40.3400 C.3   237  LEU237      0.0001
     81  N        -31.6880  -17.0380   37.1950 N.3   252  SER252     -0.1202
     82  CA       -30.2480  -16.8410   37.1440 C.3   252  SER252      0.2020
     83  C        -29.5290  -18.0580   37.6770 C.2   252  SER252      0.2619
     84  O        -30.0170  -18.7250   38.5830 O.2   252  SER252     -0.2717
     85  CB       -29.8500  -15.6140   37.9600 C.3   252  SER252      0.2103
     86  OG       -30.3090  -15.7140   39.2950 O.3   252  SER252     -0.2182
     87  N        -28.3680  -18.3410   37.1040 N.am  253  THR253     -0.1938
     88  CA       -27.5740  -19.4900   37.5040 C.3   253  THR253      0.2028
     89  C        -26.1390  -19.3760   37.0070 C.2   253  THR253      0.2643
     90  O        -25.8900  -18.9450   35.8770 O.2   253  THR253     -0.2714
     91  CB       -28.1770  -20.8050   36.9580 C.3   253  THR253      0.1808
     92  OG1      -27.3790  -21.9110   37.4020 O.3   253  THR253     -0.2208
     93  CG2      -28.2190  -20.7890   35.4280 C.3   253  THR253      0.0379
     94  N        -25.1960  -19.7680   37.8550 N.am  254  SER254     -0.1935
     95  CA       -23.7800  -19.7150   37.5100 C.3   254  SER254      0.2055
     96  C        -23.3810  -20.9030   36.6440 C.2   254  SER254      0.2643
     97  O        -22.3240  -20.9020   36.0170 O.2   254  SER254     -0.2714
     98  CB       -22.9360  -19.6860   38.7880 C.3   254  SER254      0.2130
     99  OG       -23.2950  -20.7440   39.6630 O.3   254  SER254     -0.2179
    100  N        -24.2420  -21.9110   36.6050 N.am  255  SER255     -0.1949
    101  CA       -23.9850  -23.1130   35.8260 C.3   255  SER255      0.1924
    102  C        -23.6830  -22.8350   34.3510 C.2   255  SER255      0.2314
    103  O        -23.0240  -23.6370   33.6960 O.2   255  SER255     -0.2863
    104  CB       -25.1780  -24.0630   35.9350 C.3   255  SER255      0.2116
    105  OG       -26.3450  -23.4530   35.4170 O.3   255  SER255     -0.2180
    106  N        -19.7340  -20.6080   35.3960 N.3   258  GLN258     -0.1245
    107  CA       -18.7570  -21.0390   36.3800 C.3   258  GLN258      0.1566
    108  C        -18.6490  -22.5490   36.4110 C.2   258  GLN258      0.2260
    109  O        -19.6110  -23.2200   36.2140 O.2   258  GLN258     -0.2867
    110  CB       -19.1260  -20.4940   37.7530 C.3   258  GLN258      0.0367
    111  CG       -18.4340  -21.1450   38.9000 C.3   258  GLN258      0.0905
    112  CD       -18.7810  -20.5530   40.2350 C.2   258  GLN258      0.2608
    113  OE1      -19.8350  -20.7830   40.7510 O.2   258  GLN258     -0.2717
    114  NE2      -17.8830  -19.8160   40.7940 N.am  258  GLN258     -0.0878
@<TRIPOS>BOND
     1   103   102    2
     2   102   101    1
     3   106   107    1
     4   105   104    1
     5    93    91    1
     6   101   104    1
     7   101   100    1
     8    90    89    2
     9    97    96    2
    10   109   108    2
    11   107   108    1
    12   107   110    1
    13     1     2    1
    14   100    96   am
    15    96    95    1
    16     4     3    2
    17    91    92    1
    18    91    88    1
    19    89    88    1
    20    89    94   am
    21    87    88    1
    22    87    83   am
    23    82    81    1
    24    82    83    1
    25    82    85    1
    26    95    94    1
    27    95    98    1
    28    83    84    2
    29   110   111    1
    30     2     3    1
    31     2     5    1
    32    85    86    1
    33    76    75    2
    34    75    74    1
    35    77    74    1
    36    77    78    1
    37    79    78    1
    38    11    10    2
    39     6     5    1
    40    98    99    1
    41   111   112    1
    42     7     5    1
    43    10     9    1
    44    74    73    1
    45    78    80    1
    46     8     9    1
    47    73    71   am
    48     9    12    1
    49   112   113    2
    50   112   114   am
    51    12    13    1
    52    71    72    2
    53    71    70    1
    54    60    59    1
    55    60    63    1
    56    60    61    1
    57    63    64    1
    58    13    14    1
    59    14    15    1
    60    65    61   am
    61    65    66    1
    62    70    69    1
    63    61    62    2
    64    69    67   am
    65    68    67    2
    66    67    66    1
    67    50    49    1
    68    15    16    1
    69    49    48    1
    70    43    44    1
    71    44    47    1
    72    44    45    1
    73    47    48    1
    74    25    24    1
    75    45    46    2
    76    24    23    1
    77    58    56   ar
    78    51    52    1
    79    52    53    1
    80    52    55    1
    81    56    55    1
    82    56    57   ar
    83    23    22    1
    84    53    54    2
    85    22    21    1
    86    34    35    1
    87    35    38    1
    88    35    36    1
    89    41    40   ar
    90    38    39    1
    91    39    40    1
    92    21    18    1
    93    40    42   ar
    94    36    37    2
    95    17    18    1
    96    18    19    1
    97    19    26   am
    98    19    20    2
    99    26    27    1
   100    32    31   ar
   101    31    33   ar
   102    31    30    1
   103    27    30    1
   104    27    28    1
   105    28    29    2
