@<TRIPOS>MOLECULE
tmp/3c2vA01.pdb
 94 87 0 0 0
SMALL
GASTEIGER

@<TRIPOS>ATOM
      1  N        -24.4170  -14.5940   36.5900 N.3   141  THR141     -0.1203
      2  CA       -24.1850  -13.9960   37.9110 C.3   141  THR141      0.1994
      3  C        -22.8570  -13.2380   37.9470 C.2   141  THR141      0.2618
      4  O        -22.2410  -12.9950   36.9030 O.2   141  THR141     -0.2717
      5  CB       -24.1050  -15.0830   38.9840 C.3   141  THR141      0.1784
      6  OG1      -22.9680  -15.9170   38.7230 O.3   141  THR141     -0.2211
      7  CG2      -25.3340  -15.9440   38.9640 C.3   141  THR141      0.0376
      8  N        -22.4140  -12.8700   39.1480 N.am  142  ARG142     -0.1965
      9  CA       -21.1350  -12.1830   39.2970 C.3   142  ARG142      0.1729
     10  C        -20.0580  -13.1500   39.7660 C.2   142  ARG142      0.2616
     11  O        -18.9480  -12.7410   40.0980 O.2   142  ARG142     -0.2715
     12  CB       -21.2270  -11.0340   40.2930 C.3   142  ARG142      0.0348
     13  CG       -21.4820   -9.6590   39.6870 C.3   142  ARG142      0.0492
     14  CD       -21.2370   -8.6370   40.7690 C.3   142  ARG142      0.2205
     15  NE       -21.8000   -9.1580   42.0020 N.pl3 142  ARG142     -0.0865
     16  CZ       -21.2630   -9.0220   43.2050 C.cat 142  ARG142      0.5346
     17  NH1      -20.1300   -8.3610   43.3770 N.pl3 142  ARG142      0.1354
     18  NH2      -21.8680   -9.5830   44.2350 N.pl3 142  ARG142      0.1354
     19  N        -20.3910  -14.4350   39.7980 N.am  143  LYS143     -0.1977
     20  CA       -19.4440  -15.4610   40.2080 C.3   143  LYS143      0.1596
     21  C        -18.5800  -15.7990   39.0010 C.2   143  LYS143      0.2287
     22  O        -18.5660  -16.9340   38.5160 O.2   143  LYS143     -0.2864
     23  CB       -20.1910  -16.7090   40.6750 C.3   143  LYS143      0.0298
     24  CG       -21.1260  -16.4660   41.8460 C.3   143  LYS143      0.0038
     25  CD       -21.7860  -17.7610   42.2990 C.3   143  LYS143      0.0206
     26  CE       -22.7580  -17.5140   43.4350 C.3   143  LYS143      0.1093
     27  NZ       -23.4890  -18.7570   43.8020 N.3   143  LYS143     -0.1314
     28  N        -27.1210  -10.6160   32.9840 N.3   164  HIS164     -0.1226
     29  CA       -27.5360  -10.0970   34.2790 C.3   164  HIS164      0.1752
     30  C        -26.6020   -8.8780   34.4590 C.2   164  HIS164      0.2595
     31  O        -25.8030   -8.5820   33.5540 O.2   164  HIS164     -0.2718
     32  CB       -27.3240  -11.1330   35.3860 C.3   164  HIS164      0.0759
     33  CG       -28.0350  -10.8040   36.6600 C.ar  164  HIS164      0.0818
     34  ND1      -28.8990  -11.6850   37.2790 N.ar  164  HIS164     -0.2268
     35  CD2      -28.0740   -9.6660   37.3900 C.ar  164  HIS164      0.1154
     36  CE1      -29.4450  -11.0960   38.3300 C.ar  164  HIS164      0.1986
     37  NE2      -28.9620   -9.8710   38.4200 N.ar  164  HIS164     -0.2212
     38  N        -26.7080   -8.1610   35.5760 N.am  165  ARG165     -0.1980
     39  CA       -25.8590   -6.9920   35.7950 C.3   165  ARG165      0.1597
     40  C        -24.4190   -7.4010   35.6010 C.2   165  ARG165      0.2287
     41  O        -24.0770   -8.5710   35.7170 O.2   165  ARG165     -0.2864
     42  CB       -26.0380   -6.4070   37.2030 C.3   165  ARG165      0.0334
     43  CG       -25.5810   -7.2860   38.3400 C.3   165  ARG165      0.0492
     44  CD       -25.5410   -6.4990   39.6330 C.3   165  ARG165      0.2205
     45  NE       -25.2610   -7.3600   40.7780 N.pl3 165  ARG165     -0.0865
     46  CZ       -25.1050   -6.9220   42.0230 C.cat 165  ARG165      0.5346
     47  NH1      -25.1970   -5.6300   42.2900 N.pl3 165  ARG165      0.1354
     48  NH2      -24.8770   -7.7820   43.0060 N.pl3 165  ARG165      0.1354
     49  N        -28.2720   -4.3980   43.8960 N.3   173  MET173     -0.1245
     50  CA       -28.9300   -5.5810   44.4150 C.3   173  MET173      0.1570
     51  C        -28.8310   -5.6330   45.9090 C.2   173  MET173      0.2261
     52  O        -27.7700   -5.7610   46.4310 O.2   173  MET173     -0.2867
     53  CB       -28.3100   -6.8370   43.8540 C.3   173  MET173      0.0387
     54  CG       -28.8290   -7.2480   42.5240 C.3   173  MET173      0.0595
     55  SD       -28.0180   -8.6810   41.8560 S.3   173  MET173     -0.1393
     56  CE       -28.8510   -9.9740   42.6560 C.3   173  MET173      0.0692
     57  N        -29.1780   -7.7620   48.5840 N.3   175  LYS175     -0.1245
     58  CA       -29.1820   -9.1540   48.8750 C.3   175  LYS175      0.1561
     59  C        -29.3880   -9.4250   50.3350 C.2   175  LYS175      0.2260
     60  O        -29.4350   -8.5220   51.1400 O.2   175  LYS175     -0.2867
     61  CB       -27.8760   -9.7620   48.4190 C.3   175  LYS175      0.0271
     62  CG       -27.7860   -9.8950   46.9530 C.3   175  LYS175      0.0035
     63  CD       -26.4470  -10.3690   46.5220 C.3   175  LYS175      0.0206
     64  CE       -26.3420  -10.2920   45.0520 C.3   175  LYS175      0.1093
     65  NZ       -25.3530  -11.2160   44.5630 N.3   175  LYS175     -0.1314
     66  N        -36.1670  -10.4700   43.6850 N.3   224  MET224     -0.1245
     67  CA       -35.4220  -11.7200   43.7690 C.3   224  MET224      0.1570
     68  C        -36.0300  -12.4980   44.9260 C.2   224  MET224      0.2261
     69  O        -36.0470  -12.0140   46.0560 O.2   224  MET224     -0.2867
     70  CB       -33.9530  -11.4020   44.0570 C.3   224  MET224      0.0387
     71  CG       -33.1400  -12.5250   44.6870 C.3   224  MET224      0.0595
     72  SD       -32.2950  -13.5900   43.5160 S.3   224  MET224     -0.1393
     73  CE       -30.7750  -12.7330   43.3110 C.3   224  MET224      0.0692
     74  N        -37.4850  -12.5440   39.6470 N.3   232  GLU232     -0.1245
     75  CA       -36.3360  -13.3880   39.3710 C.3   232  GLU232      0.1567
     76  C        -36.2420  -14.5040   40.3870 C.2   232  GLU232      0.2260
     77  O        -36.4270  -14.2770   41.5830 O.2   232  GLU232     -0.2867
     78  CB       -35.0450  -12.5730   39.4310 C.3   232  GLU232      0.0388
     79  CG       -33.7950  -13.4130   39.2310 C.3   232  GLU232      0.1160
     80  CD       -32.5080  -12.6250   39.4210 C.2   232  GLU232      0.3649
     81  OE1      -32.5300  -11.3800   39.2680 O.co2 232  GLU232     -0.2457
     82  OE2      -31.4700  -13.2590   39.7090 O.co2 232  GLU232     -0.2457
     83  N        -33.6220  -17.4560   41.6790 N.3   234  SER234     -0.1217
     84  CA       -32.2150  -17.8270   41.5910 C.3   234  SER234      0.1889
     85  C        -31.7970  -18.8130   42.6620 C.2   234  SER234      0.2288
     86  O        -32.4170  -18.8780   43.7220 O.2   234  SER234     -0.2866
     87  CB       -31.3430  -16.5760   41.7030 C.3   234  SER234      0.2089
     88  OG       -29.9640  -16.9110   41.7260 O.3   234  SER234     -0.2183
     89  N        -31.6880  -17.0380   37.1950 N.3   252  SER252     -0.1217
     90  CA       -30.2480  -16.8410   37.1440 C.3   252  SER252      0.1889
     91  C        -29.5290  -18.0580   37.6770 C.2   252  SER252      0.2288
     92  O        -30.0170  -18.7250   38.5830 O.2   252  SER252     -0.2866
     93  CB       -29.8500  -15.6140   37.9600 C.3   252  SER252      0.2089
     94  OG       -30.3090  -15.7140   39.2950 O.3   252  SER252     -0.2183
@<TRIPOS>BOND
     1    28    29    1
     2    31    30    2
     3    29    30    1
     4    29    32    1
     5    30    38   am
     6    32    33    1
     7    38    39    1
     8    40    41    2
     9    40    39    1
    10    39    42    1
    11     1     2    1
    12    33    34   ar
    13    33    35   ar
    14     4     3    2
    15    90    89    1
    16    90    91    1
    17    90    93    1
    18    42    43    1
    19    34    36   ar
    20    35    37   ar
    21    91    92    2
    22     2     3    1
    23     2     5    1
    24     3     8   am
    25    93    94    1
    26    36    37   ar
    27    43    44    1
    28    22    21    2
    29     6     5    1
    30     7     5    1
    31    21    20    1
    32     8     9    1
    33    79    80    1
    34    79    78    1
    35    81    80   ar
    36     9    10    1
    37     9    12    1
    38    75    78    1
    39    75    74    1
    40    75    76    1
    41    80    82   ar
    42    44    45    1
    43    13    12    1
    44    13    14    1
    45    10    19   am
    46    10    11    2
    47    19    20    1
    48    20    23    1
    49    76    77    2
    50    23    24    1
    51    14    15    1
    52    45    46    2
    53    84    83    1
    54    84    87    1
    55    84    85    1
    56    87    88    1
    57    24    25    1
    58    55    54    1
    59    55    56    1
    60    15    16    2
    61    46    47    1
    62    46    48    1
    63    25    26    1
    64    54    53    1
    65    85    86    2
    66    16    17    1
    67    16    18    1
    68    73    72    1
    69    26    27    1
    70    72    71    1
    71    66    67    1
    72    67    70    1
    73    67    68    1
    74    53    50    1
    75    49    50    1
    76    70    71    1
    77    50    51    1
    78    65    64    1
    79    68    69    2
    80    64    63    1
    81    51    52    2
    82    63    62    1
    83    62    61    1
    84    61    58    1
    85    57    58    1
    86    58    59    1
    87    59    60    2
