@<TRIPOS>MOLECULE
tmp/3c2yA00.pdb
 97 90 0 0 0
SMALL
GASTEIGER

@<TRIPOS>ATOM
      1  N          9.6930   11.8190   21.9630 N.3    92  ASP92      -0.1225
      2  CA        10.5450   12.8660   22.5520 C.3    92  ASP92       0.1805
      3  C          9.6710   13.6420   23.5390 C.2    92  ASP92       0.2598
      4  O          8.4410   13.5700   23.4160 O.2    92  ASP92      -0.2718
      5  CB        11.1820   13.7650   21.5120 C.3    92  ASP92       0.1424
      6  CG        12.3800   14.5600   21.9900 C.2    92  ASP92       0.3668
      7  OD1       12.8040   14.4350   23.1500 O.co2  92  ASP92      -0.2456
      8  OD2       12.9150   15.3540   21.1840 O.co2  92  ASP92      -0.2456
      9  N         10.3190   14.3210   24.4780 N.am   93  SER93      -0.1952
     10  CA         9.6890   14.8380   25.6810 C.3    93  SER93       0.1924
     11  C          9.1990   16.2880   25.5870 C.2    93  SER93       0.2314
     12  O          8.4870   16.7170   26.4890 O.2    93  SER93      -0.2863
     13  CB        10.6730   14.7570   26.8540 C.3    93  SER93       0.2116
     14  OG        11.9060   15.3760   26.5580 O.3    93  SER93      -0.2180
     15  N         13.1290   19.6710   23.0700 N.3    96  TYR96      -0.1241
     16  CA        13.8190   20.2590   21.9130 C.3    96  TYR96       0.1605
     17  C         12.9980   21.4580   21.4360 C.2    96  TYR96       0.2264
     18  O         13.5250   22.4940   21.0390 O.2    96  TYR96      -0.2867
     19  CB        14.0310   19.2850   20.7710 C.3    96  TYR96       0.0534
     20  CG        14.7080   19.8620   19.5470 C.ar   96  TYR96      -0.0201
     21  CD1       16.0810   19.9300   19.4430 C.ar   96  TYR96      -0.0009
     22  CD2       13.9450   20.3460   18.4820 C.ar   96  TYR96      -0.0009
     23  CE1       16.7260   20.4530   18.3280 C.ar   96  TYR96       0.0417
     24  CE2       14.5700   20.8680   17.3690 C.ar   96  TYR96       0.0417
     25  CZ        15.9480   20.9200   17.2900 C.ar   96  TYR96       0.1957
     26  OH        16.5450   21.4540   16.1700 O.3    96  TYR96      -0.2866
     27  N         13.9660   17.5950   29.2890 N.3   134  ASP134     -0.1239
     28  CA        15.2180   18.3040   29.3390 C.3   134  ASP134      0.1674
     29  C         15.0920   19.6730   28.6840 C.2   134  ASP134      0.2266
     30  O         14.0010   20.0440   28.2280 O.2   134  ASP134     -0.2867
     31  CB        16.2950   17.4720   28.6490 C.3   134  ASP134      0.1410
     32  CG        16.0990   17.3220   27.1510 C.2   134  ASP134      0.3668
     33  OD1       14.9370   17.3200   26.6980 O.co2 134  ASP134     -0.2456
     34  OD2       17.1200   17.1940   26.4480 O.co2 134  ASP134     -0.2456
     35  N         17.3150   21.1880   25.5520 N.3   136  CYS136     -0.1235
     36  CA        18.4120   21.0420   24.5900 C.3   136  CYS136      0.1677
     37  C         19.1630   22.3700   24.5710 C.2   136  CYS136      0.2270
     38  O         18.5650   23.4070   24.2590 O.2   136  CYS136     -0.2867
     39  CB        17.8790   20.6270   23.2270 C.3   136  CYS136      0.0956
     40  SG        19.0670   20.7140   21.8590 S.3   136  CYS136     -0.0801
     41  N         18.7670   11.9420   29.0860 N.3   179  ILE179     -0.1245
     42  CA        19.4650   12.6710   28.0440 C.3   179  ILE179      0.1561
     43  C         20.6380   13.4650   28.5780 C.2   179  ILE179      0.2260
     44  O         20.4650   14.3290   29.4140 O.2   179  ILE179     -0.2867
     45  CB        18.4930   13.6120   27.3010 C.3   179  ILE179      0.0252
     46  CG1       17.2070   12.8690   26.9240 C.3   179  ILE179      0.0019
     47  CG2       19.1950   14.2590   26.1300 C.3   179  ILE179      0.0019
     48  CD1       16.1470   13.7640   26.3300 C.3   179  ILE179      0.0001
     49  N         23.4540   16.2370   28.2210 N.3   181  GLN181     -0.1245
     50  CA        23.7160   17.5890   27.8350 C.3   181  GLN181      0.1566
     51  C         25.1350   17.9820   28.2030 C.2   181  GLN181      0.2260
     52  O         25.9600   17.1270   28.5180 O.2   181  GLN181     -0.2867
     53  CB        22.6740   18.5030   28.4930 C.3   181  GLN181      0.0367
     54  CG        21.2590   18.1280   28.0950 C.3   181  GLN181      0.0905
     55  CD        20.9410   18.3910   26.6400 C.2   181  GLN181      0.2608
     56  OE1       21.7390   19.0170   25.9370 O.2   181  GLN181     -0.2717
     57  NE2       19.8010   17.8950   26.1520 N.am  181  GLN181     -0.0878
     58  N         22.1690   14.2630   23.9280 N.3   207  GLY207     -0.1210
     59  CA        21.4110   15.4100   23.4890 C.3   207  GLY207      0.1956
     60  C         22.2660   16.6000   23.1520 C.2   207  GLY207      0.2612
     61  O         23.4880   16.5680   23.2980 O.2   207  GLY207     -0.2717
     62  N         21.6390   17.6860   22.7020 N.am  208  GLY208     -0.1942
     63  CA        22.3940   18.8930   22.4490 C.3   208  GLY208      0.2014
     64  C         23.2480   18.8760   21.2110 C.2   208  GLY208      0.2639
     65  O         24.1260   19.7440   21.0790 O.2   208  GLY208     -0.2714
     66  N         23.0540   17.9320   20.2930 N.am  209  LEU209     -0.1963
     67  CA        23.9120   17.9190   19.1050 C.3   209  LEU209      0.1728
     68  C         23.0540   18.0760   17.8640 C.2   209  LEU209      0.2616
     69  O         21.8280   18.0590   17.9120 O.2   209  LEU209     -0.2715
     70  CB        24.7890   16.6700   19.0790 C.3   209  LEU209      0.0311
     71  CG        25.9280   16.6310   20.1030 C.3   209  LEU209      0.0022
     72  CD1       26.6580   15.2920   20.0850 C.3   209  LEU209      0.0001
     73  CD2       26.9470   17.7400   19.8610 C.3   209  LEU209      0.0001
     74  N         23.7100   18.2580   16.7200 N.am  210  ALA210     -0.1963
     75  CA        22.9360   18.4950   15.4870 C.3   210  ALA210      0.1728
     76  C         22.1540   19.7970   15.6060 C.2   210  ALA210      0.2616
     77  O         21.0350   19.9760   15.1290 O.2   210  ALA210     -0.2715
     78  CB        22.0260   17.3230   15.1640 C.3   210  ALA210      0.0334
     79  N         22.7590   20.7820   16.2690 N.am  211  VAL211     -0.1977
     80  CA        22.0060   22.0330   16.4090 C.3   211  VAL211      0.1596
     81  C         22.8510   23.2150   15.9350 C.2   211  VAL211      0.2287
     82  O         22.6330   24.3130   16.4220 O.2   211  VAL211     -0.2864
     83  CB        21.6000   22.2840   17.8650 C.3   211  VAL211      0.0276
     84  CG1       20.5440   21.2880   18.3140 C.3   211  VAL211      0.0022
     85  CG2       22.8330   22.2040   18.7530 C.3   211  VAL211      0.0022
     86  N         20.0900   11.8850   19.4340 N.3   238  MET238     -0.1230
     87  CA        18.8300   12.4820   19.0380 C.3   238  MET238      0.1702
     88  C         18.9440   13.3600   17.7930 C.2   238  MET238      0.2592
     89  O         19.7780   14.2530   17.7130 O.2   238  MET238     -0.2718
     90  CB        18.2400   13.3180   20.1820 C.3   238  MET238      0.0401
     91  CG        18.2080   12.5480   21.4870 C.3   238  MET238      0.0596
     92  SD        17.2560   13.2630   22.8170 S.3   238  MET238     -0.1393
     93  CE        15.5910   12.9340   22.2240 C.3   238  MET238      0.0692
     94  N         18.0780   13.0800   16.8420 N.am  239  GLY239     -0.1957
     95  CA        17.8570   13.8820   15.6620 C.3   239  GLY239      0.1869
     96  C         18.8960   13.7110   14.5760 C.2   239  GLY239      0.2309
     97  O         18.8810   14.4370   13.5810 O.2   239  GLY239     -0.2863
@<TRIPOS>BOND
     1    97    96    2
     2    96    95    1
     3    77    76    2
     4    78    75    1
     5    75    76    1
     6    75    74    1
     7    76    79   am
     8    95    94    1
     9    81    80    1
    10    81    82    2
    11    26    25    1
    12    79    80    1
    13    80    83    1
    14    74    68   am
    15    94    88   am
    16    25    24   ar
    17    25    23   ar
    18    24    22   ar
    19    89    88    2
    20    88    87    1
    21    68    69    2
    22    68    67    1
    23    83    84    1
    24    83    85    1
    25    23    21   ar
    26    22    20   ar
    27    87    86    1
    28    87    90    1
    29    70    67    1
    30    70    71    1
    31    67    66    1
    32    21    20   ar
    33    20    19    1
    34    73    71    1
    35    72    71    1
    36    90    91    1
    37    66    64   am
    38    19    16    1
    39    18    17    2
    40    65    64    2
    41     8     6   ar
    42    64    63    1
    43    17    16    1
    44    91    92    1
    45     5     6    1
    46     5     2    1
    47    40    39    1
    48    16    15    1
    49     1     2    1
    50     6     7   ar
    51    93    92    1
    52    63    62    1
    53     2     3    1
    54    62    60   am
    55    60    61    2
    56    60    59    1
    57    39    36    1
    58     4     3    2
    59    59    58    1
    60     3     9   am
    61    38    37    2
    62     9    10    1
    63    37    36    1
    64    36    35    1
    65    11    10    1
    66    11    12    2
    67    10    13    1
    68    56    55    2
    69    47    45    1
    70    57    55   am
    71    48    46    1
    72    34    32   ar
    73    14    13    1
    74    55    54    1
    75    33    32   ar
    76    46    45    1
    77    32    31    1
    78    45    42    1
    79    50    51    1
    80    50    49    1
    81    50    53    1
    82    42    43    1
    83    42    41    1
    84    54    53    1
    85    51    52    2
    86    30    29    2
    87    43    44    2
    88    31    28    1
    89    29    28    1
    90    27    28    1
