@<TRIPOS>MOLECULE
tmp/3c30A00.pdb
 79 77 0 0 0
SMALL
GASTEIGER

@<TRIPOS>ATOM
      1  N         -7.5310   -2.9970  -21.1360 N.3   141  ASP141     -0.1239
      2  CA        -8.8250   -3.4650  -20.6590 C.3   141  ASP141      0.1674
      3  C         -8.8850   -3.8880  -19.2040 C.2   141  ASP141      0.2266
      4  O         -9.7990   -4.6060  -18.7940 O.2   141  ASP141     -0.2867
      5  CB        -9.3130   -4.6260  -21.5130 C.3   141  ASP141      0.1410
      6  CG        -9.5240   -4.2310  -22.9500 C.2   141  ASP141      0.3668
      7  OD1      -10.2760   -3.2530  -23.1890 O.co2 141  ASP141     -0.2456
      8  OD2       -8.9370   -4.8990  -23.8330 O.co2 141  ASP141     -0.2456
      9  N        -10.1390   -3.0550  -16.3680 N.3   143  PHE143     -0.1241
     10  CA       -11.1720   -2.2290  -15.7470 C.3   143  PHE143      0.1605
     11  C        -11.0930   -2.2700  -14.2220 C.2   143  PHE143      0.2264
     12  O        -11.3140   -1.2570  -13.5570 O.2   143  PHE143     -0.2867
     13  CB       -12.5510   -2.7160  -16.2070 C.3   143  PHE143      0.0534
     14  CG       -13.7000   -2.0330  -15.5220 C.ar  143  PHE143     -0.0203
     15  CD1      -14.1050   -0.7410  -15.9020 C.ar  143  PHE143     -0.0042
     16  CD2      -14.3640   -2.6680  -14.4710 C.ar  143  PHE143     -0.0042
     17  CE1      -15.1660   -0.0950  -15.2310 C.ar  143  PHE143     -0.0003
     18  CE2      -15.4150   -2.0370  -13.7970 C.ar  143  PHE143     -0.0003
     19  CZ       -15.8190   -0.7470  -14.1760 C.ar  143  PHE143     -0.0000
     20  N         -6.5650    4.8340  -25.9180 N.3   166  PRO166     -0.2102
     21  CA        -7.1180    4.3210  -24.6600 C.3   166  PRO166      0.1504
     22  C         -6.8150    2.8450  -24.4360 C.2   166  PRO166      0.2576
     23  O         -6.9550    2.0290  -25.3500 O.2   166  PRO166     -0.2718
     24  CB        -8.6190    4.5570  -24.8160 C.3   166  PRO166      0.0282
     25  CG        -8.7010    5.6550  -25.8030 C.3   166  PRO166      0.0208
     26  CD        -7.6560    5.2810  -26.7990 C.3   166  PRO166      0.0893
     27  N         -6.3970    2.5130  -23.2190 N.am  167  LEU167     -0.1966
     28  CA        -6.1050    1.1370  -22.8670 C.3   167  LEU167      0.1728
     29  C         -7.3360    0.6120  -22.1630 C.2   167  LEU167      0.2616
     30  O         -7.7480   -0.5290  -22.3770 O.2   167  LEU167     -0.2715
     31  CB        -4.9060    1.0730  -21.9390 C.3   167  LEU167      0.0311
     32  CG        -3.5450    0.8200  -22.5690 C.3   167  LEU167      0.0022
     33  CD1       -3.3790    1.6170  -23.8350 C.3   167  LEU167      0.0001
     34  CD2       -2.4830    1.1810  -21.5510 C.3   167  LEU167      0.0001
     35  N         -7.9190    1.4590  -21.3200 N.am  168  VAL168     -0.1963
     36  CA        -9.1230    1.1050  -20.5900 C.3   168  VAL168      0.1727
     37  C         -9.7990    2.3480  -20.0310 C.2   168  VAL168      0.2617
     38  O         -9.1600    3.3670  -19.7900 O.2   168  VAL168     -0.2715
     39  CB        -8.8440    0.0940  -19.4500 C.3   168  VAL168      0.0290
     40  CG1       -8.0470    0.7410  -18.3200 C.3   168  VAL168      0.0023
     41  CG2      -10.1710   -0.4800  -18.9620 C.3   168  VAL168      0.0023
     42  N        -11.1040    2.2570  -19.8230 N.am  169  SER169     -0.1936
     43  CA       -11.8660    3.3950  -19.3440 C.3   169  SER169      0.2055
     44  C        -12.9480    2.9830  -18.3770 C.2   169  SER169      0.2644
     45  O        -13.2600    1.8030  -18.2470 O.2   169  SER169     -0.2714
     46  CB       -12.4910    4.1270  -20.5310 C.3   169  SER169      0.2130
     47  OG       -13.5880    4.9040  -20.1210 O.3   169  SER169     -0.2179
     48  N        -13.5020    3.9710  -17.6840 N.am  170  THR170     -0.1936
     49  CA       -14.5720    3.7250  -16.7370 C.3   170  THR170      0.2028
     50  C        -15.8870    4.2850  -17.2680 C.2   170  THR170      0.2642
     51  O        -16.9400    4.0630  -16.6670 O.2   170  THR170     -0.2714
     52  CB       -14.2840    4.3700  -15.3850 C.3   170  THR170      0.1808
     53  OG1      -13.9910    5.7540  -15.5740 O.3   170  THR170     -0.2208
     54  CG2      -13.1180    3.6990  -14.7280 C.3   170  THR170      0.0379
     55  N        -15.8200    5.0150  -18.3820 N.am  171  LEU171     -0.1963
     56  CA       -17.0160    5.5900  -18.9910 C.3   171  LEU171      0.1728
     57  C        -18.0030    4.4870  -19.3520 C.2   171  LEU171      0.2616
     58  O        -17.6030    3.4250  -19.8270 O.2   171  LEU171     -0.2715
     59  CB       -16.6580    6.3960  -20.2440 C.3   171  LEU171      0.0311
     60  CG       -16.1050    7.8100  -20.0320 C.3   171  LEU171      0.0022
     61  CD1      -14.7950    7.7550  -19.2700 C.3   171  LEU171      0.0001
     62  CD2      -15.9000    8.4770  -21.3710 C.3   171  LEU171      0.0001
     63  N        -19.2920    4.7440  -19.1220 N.am  172  LYS172     -0.1977
     64  CA       -20.3430    3.7690  -19.4100 C.3   172  LYS172      0.1596
     65  C        -21.0140    3.9640  -20.7510 C.2   172  LYS172      0.2287
     66  O        -21.6040    3.0350  -21.2890 O.2   172  LYS172     -0.2864
     67  CB       -21.4040    3.8050  -18.3200 C.3   172  LYS172      0.0298
     68  CG       -20.8720    3.3890  -16.9780 C.3   172  LYS172      0.0038
     69  CD       -21.9770    3.3580  -15.9550 C.3   172  LYS172      0.0206
     70  CE       -21.3940    3.2210  -14.5580 C.3   172  LYS172      0.1093
     71  NZ       -20.4460    4.3380  -14.2550 N.3   172  LYS172     -0.1314
     72  N        -15.4980    9.1650  -25.1590 N.3   179  LEU179     -0.1245
     73  CA       -14.1460    8.7500  -24.8200 C.3   179  LEU179      0.1561
     74  C        -13.2020    9.5730  -25.6870 C.2   179  LEU179      0.2260
     75  O        -12.2430   10.1620  -25.2000 O.2   179  LEU179     -0.2867
     76  CB       -13.9710    7.2650  -25.1170 C.3   179  LEU179      0.0270
     77  CG       -12.5830    6.6960  -24.8610 C.3   179  LEU179      0.0019
     78  CD1      -12.1680    6.9950  -23.4290 C.3   179  LEU179      0.0001
     79  CD2      -12.5950    5.2030  -25.1200 C.3   179  LEU179      0.0001
@<TRIPOS>BOND
     1    26    20    1
     2    26    25    1
     3    20    21    1
     4    25    24    1
     5    74    75    2
     6    74    73    1
     7    23    22    2
     8    72    73    1
     9    79    77    1
    10    76    77    1
    11    76    73    1
    12    77    78    1
    13    24    21    1
    14    21    22    1
    15    22    27   am
    16    33    32    1
    17     8     6   ar
    18    27    28    1
    19     7     6   ar
    20     6     5    1
    21    28    29    1
    22    28    31    1
    23    32    31    1
    24    32    34    1
    25    30    29    2
    26    29    35   am
    27     5     2    1
    28    62    60    1
    29    35    36    1
    30    66    65    2
    31     1     2    1
    32    65    64    1
    33     2     3    1
    34    36    37    1
    35    36    39    1
    36    46    47    1
    37    46    43    1
    38    59    60    1
    39    59    56    1
    40    60    61    1
    41    37    42   am
    42    37    38    2
    43    58    57    2
    44    42    43    1
    45    39    41    1
    46    39    40    1
    47    64    63    1
    48    64    67    1
    49    57    63   am
    50    57    56    1
    51    43    44    1
    52     3     4    2
    53    56    55    1
    54    55    50   am
    55    44    45    2
    56    44    48   am
    57    67    68    1
    58    48    49    1
    59    50    49    1
    60    50    51    2
    61    68    69    1
    62    49    52    1
    63     9    10    1
    64    13    10    1
    65    13    14    1
    66    69    70    1
    67    15    14   ar
    68    15    17   ar
    69    10    11    1
    70    53    52    1
    71    14    16   ar
    72    52    54    1
    73    17    19   ar
    74    70    71    1
    75    16    18   ar
    76    11    12    2
    77    19    18   ar
