@<TRIPOS>MOLECULE
tmp/3c37A00.pdb
 84 77 0 0 0
SMALL
GASTEIGER

@<TRIPOS>ATOM
      1  N         42.2370   30.4400   36.8740 N.3    28  VAL28      -0.1231
      2  CA        41.4330   31.3250   36.0690 C.3    28  VAL28       0.1692
      3  C         40.6230   32.1620   37.0530 C.2    28  VAL28       0.2592
      4  O         39.9190   31.6290   37.9100 O.2    28  VAL28      -0.2718
      5  CB        40.5120   30.5570   35.0950 C.3    28  VAL28       0.0266
      6  CG1       39.5280   31.5060   34.4090 C.3    28  VAL28       0.0020
      7  CG2       41.3420   29.8600   34.0610 C.3    28  VAL28       0.0020
      8  N         40.7440   33.4750   36.9390 N.am   29  ASN29      -0.1960
      9  CA        39.9180   34.3750   37.7250 C.3    29  ASN29       0.1819
     10  C         38.9400   35.1410   36.8320 C.2    29  ASN29       0.2621
     11  O         38.7950   36.3690   36.9130 O.2    29  ASN29      -0.2715
     12  CB        40.7930   35.2760   38.5950 C.3    29  ASN29       0.1195
     13  CG        41.5400   34.4920   39.6750 C.2    29  ASN29       0.2630
     14  OD1       40.9390   33.7020   40.4240 O.2    29  ASN29      -0.2716
     15  ND2       42.8540   34.7010   39.7550 N.am   29  ASN29      -0.0877
     16  N         38.2540   34.3750   35.9930 N.am   30  ASP30      -0.1971
     17  CA        37.3000   34.8880   35.0320 C.3    30  ASP30       0.1709
     18  C         35.9130   34.4120   35.4590 C.2    30  ASP30       0.2293
     19  O         35.5740   33.2340   35.2930 O.2    30  ASP30      -0.2864
     20  CB        37.6520   34.3580   33.6360 C.3    30  ASP30       0.1436
     21  CG        36.7670   34.9200   32.5420 C.2    30  ASP30       0.3671
     22  OD1       35.5920   35.2270   32.7960 O.co2  30  ASP30      -0.2456
     23  OD2       37.2530   35.0310   31.4000 O.co2  30  ASP30      -0.2456
     24  N         44.6390   27.4700   34.7110 N.3    61  LYS61      -0.1245
     25  CA        45.3070   27.8820   33.4800 C.3    61  LYS61       0.1561
     26  C         46.4370   26.9190   33.2030 C.2    61  LYS61       0.2260
     27  O         47.5040   26.9970   33.8280 O.2    61  LYS61      -0.2867
     28  CB        45.8450   29.3170   33.6140 C.3    61  LYS61       0.0271
     29  CG        44.8020   30.4160   33.4020 C.3    61  LYS61       0.0035
     30  CD        45.4250   31.8370   33.5190 C.3    61  LYS61       0.0206
     31  CE        46.8170   31.9340   32.8890 C.3    61  LYS61       0.1093
     32  NZ        46.8230   32.1870   31.4160 N.3    61  LYS61      -0.1314
     33  N         47.6870   24.4770   29.6470 N.3    63  ASP63      -0.1239
     34  CA        47.3990   24.0670   28.2770 C.3    63  ASP63       0.1674
     35  C         47.3020   22.5590   28.0680 C.2    63  ASP63       0.2266
     36  O         46.8530   22.1140   27.0150 O.2    63  ASP63      -0.2867
     37  CB        48.4150   24.6840   27.2970 C.3    63  ASP63       0.1410
     38  CG        48.1190   26.1410   26.9800 C.2    63  ASP63       0.3668
     39  OD1       46.9440   26.5770   27.0730 O.co2  63  ASP63      -0.2456
     40  OD2       49.0700   26.8650   26.6180 O.co2  63  ASP63      -0.2456
     41  N         42.2440   24.6580   31.3560 N.3    79  THR79      -0.1218
     42  CA        41.8390   25.4610   30.1970 C.3    79  THR79       0.1862
     43  C         42.1280   24.7030   28.9050 C.2    79  THR79       0.2287
     44  O         41.3360   24.7650   27.9680 O.2    79  THR79      -0.2866
     45  CB        42.5350   26.8300   30.1930 C.3    79  THR79       0.1770
     46  OG1       43.9520   26.6360   30.3250 O.3    79  THR79      -0.2211
     47  CG2       41.9990   27.6500   31.3530 C.3    79  THR79       0.0375
     48  N         39.6020   24.1430   25.6570 N.3    83  LYS83      -0.1245
     49  CA        40.0250   24.5740   24.3180 C.3    83  LYS83       0.1561
     50  C         40.0620   23.4180   23.3140 C.2    83  LYS83       0.2260
     51  O         39.8440   23.6190   22.1040 O.2    83  LYS83      -0.2867
     52  CB        41.3940   25.2490   24.4050 C.3    83  LYS83       0.0271
     53  CG        41.3420   26.6060   25.1010 C.3    83  LYS83       0.0035
     54  CD        42.6210   27.3930   24.9170 C.3    83  LYS83       0.0206
     55  CE        43.7620   26.7840   25.6870 C.3    83  LYS83       0.1093
     56  NZ        44.8890   27.7520   25.8120 N.3    83  LYS83      -0.1314
     57  N         36.7760   33.0280   24.4270 N.3   213  ARG213     -0.1231
     58  CA        37.4900   33.8040   25.4370 C.3   213  ARG213      0.1694
     59  C         38.7960   33.1480   25.8850 C.2   213  ARG213      0.2591
     60  O         39.7860   33.8350   26.1330 O.2   213  ARG213     -0.2718
     61  CB        36.5850   34.0590   26.6460 C.3   213  ARG213      0.0321
     62  CG        37.1560   35.0560   27.6500 C.3   213  ARG213      0.0489
     63  CD        36.0510   35.6960   28.4840 C.3   213  ARG213      0.2205
     64  NE        36.5630   36.7400   29.3740 N.pl3 213  ARG213     -0.0865
     65  CZ        36.9010   37.9730   28.9880 C.cat 213  ARG213      0.5346
     66  NH1       36.7930   38.3440   27.7140 N.pl3 213  ARG213      0.1354
     67  NH2       37.3560   38.8430   29.8830 N.pl3 213  ARG213      0.1354
     68  N         38.8030   31.8230   25.9960 N.am  214  LEU214     -0.1980
     69  CA        39.9980   31.1080   26.4550 C.3   214  LEU214      0.1596
     70  C         41.1230   31.0420   25.4210 C.2   214  LEU214      0.2287
     71  O         42.2970   31.0380   25.7780 O.2   214  LEU214     -0.2864
     72  CB        39.6340   29.7030   26.9420 C.3   214  LEU214      0.0297
     73  CG        38.8070   29.6310   28.2280 C.3   214  LEU214      0.0022
     74  CD1       38.5070   28.1880   28.6200 C.3   214  LEU214      0.0001
     75  CD2       39.4940   30.3560   29.3830 C.3   214  LEU214      0.0001
     76  N         43.5730   33.9130   25.5480 N.3   217  GLU217     -0.1245
     77  CA        44.6410   33.8880   26.5450 C.3   217  GLU217      0.1567
     78  C         45.8630   33.1720   25.9990 C.2   217  GLU217      0.2260
     79  O         46.2160   33.3350   24.8420 O.2   217  GLU217     -0.2867
     80  CB        44.1790   33.1970   27.8270 C.3   217  GLU217      0.0388
     81  CG        44.9630   33.6270   29.0710 C.3   217  GLU217      0.1160
     82  CD        44.6880   35.0660   29.4510 C.2   217  GLU217      0.3649
     83  OE1       43.5190   35.3640   29.7850 O.co2 217  GLU217     -0.2457
     84  OE2       45.6330   35.8980   29.4040 O.co2 217  GLU217     -0.2457
@<TRIPOS>BOND
     1    51    50    2
     2    50    49    1
     3    49    52    1
     4    49    48    1
     5    52    53    1
     6    57    58    1
     7    79    78    2
     8    54    53    1
     9    54    55    1
    10    70    71    2
    11    70    69    1
    12    58    59    1
    13    58    61    1
    14    76    77    1
    15    55    56    1
    16    59    68   am
    17    59    60    2
    18    68    69    1
    19    78    77    1
    20    69    72    1
    21    77    80    1
    22    40    38   ar
    23    61    62    1
    24    72    73    1
    25    38    39   ar
    26    38    37    1
    27    36    35    2
    28    37    34    1
    29    62    63    1
    30    66    65    1
    31    80    81    1
    32    44    43    2
    33    35    34    1
    34    73    74    1
    35    73    75    1
    36    34    33    1
    37    63    64    1
    38    43    42    1
    39    65    64    2
    40    65    67    1
    41    81    82    1
    42    84    82   ar
    43    82    83   ar
    44    45    42    1
    45    45    46    1
    46    45    47    1
    47    42    41    1
    48    23    21   ar
    49    32    31    1
    50    21    22   ar
    51    21    20    1
    52    31    30    1
    53    26    25    1
    54    26    27    2
    55    29    30    1
    56    29    28    1
    57    25    28    1
    58    25    24    1
    59    20    17    1
    60     7     5    1
    61     6     5    1
    62    17    18    1
    63    17    16    1
    64     5     2    1
    65    19    18    2
    66    16    10   am
    67     2     1    1
    68     2     3    1
    69    10    11    2
    70    10     9    1
    71     8     3   am
    72     8     9    1
    73     3     4    2
    74     9    12    1
    75    12    13    1
    76    13    15   am
    77    13    14    2
