@<TRIPOS>MOLECULE
tmp/3c3cA01.pdb
 153 147 0 0 0
SMALL
GASTEIGER

@<TRIPOS>ATOM
      1  N         10.5200   -7.5790   30.2290 N.3   212  GLY212     -0.1210
      2  CA        11.0790   -7.0000   31.4320 C.3   212  GLY212      0.1956
      3  C         10.4990   -5.6380   31.7530 C.2   212  GLY212      0.2612
      4  O          9.8280   -5.0090   30.9340 O.2   212  GLY212     -0.2717
      5  N         10.7610   -5.1680   32.9550 N.am  213  GLY213     -0.1942
      6  CA        10.1830   -3.9120   33.3850 C.3   213  GLY213      0.2014
      7  C          9.9230   -3.9290   34.8670 C.2   213  GLY213      0.2639
      8  O         10.0350   -4.9680   35.5020 O.2   213  GLY213     -0.2714
      9  N          9.5520   -2.7760   35.3970 N.am  214  ALA214     -0.1963
     10  CA         9.4750   -2.5290   36.8350 C.3   214  ALA214      0.1728
     11  C          8.1690   -3.0020   37.4440 C.2   214  ALA214      0.2616
     12  O          8.1550   -3.5700   38.5500 O.2   214  ALA214     -0.2715
     13  CB         9.6560   -1.0410   37.1170 C.3   214  ALA214      0.0334
     14  N          7.0730   -2.7600   36.7300 N.am  215  LYS215     -0.1977
     15  CA         5.7690   -2.9820   37.3060 C.3   215  LYS215      0.1596
     16  C          4.9600   -3.9900   36.5370 C.2   215  LYS215      0.2287
     17  O          5.1280   -4.1450   35.3330 O.2   215  LYS215     -0.2864
     18  CB         5.0250   -1.6480   37.4660 C.3   215  LYS215      0.0298
     19  CG         5.3190   -0.9170   38.8030 C.3   215  LYS215      0.0038
     20  CD         4.6900   -1.6440   40.0240 C.3   215  LYS215      0.0206
     21  CE         4.8620   -0.8670   41.3550 C.3   215  LYS215      0.1093
     22  NZ         6.2970   -0.8200   41.8150 N.3   215  LYS215     -0.1314
     23  N          0.4160   -2.9750   34.9040 N.3   218  ASP218     -0.1225
     24  CA         0.2750   -2.3670   33.5860 C.3   218  ASP218      0.1805
     25  C          0.5980   -3.2900   32.3620 C.2   218  ASP218      0.2597
     26  O          0.5500   -2.8420   31.2140 O.2   218  ASP218     -0.2718
     27  CB         1.1400   -1.1060   33.5610 C.3   218  ASP218      0.1424
     28  CG         2.6030   -1.4120   33.7980 C.2   218  ASP218      0.3668
     29  OD1        3.4670   -0.7100   33.2300 O.co2 218  ASP218     -0.2456
     30  OD2        2.9000   -2.3860   34.5250 O.co2 218  ASP218     -0.2456
     31  N          0.9160   -4.5640   32.6130 N.am  219  LYS219     -0.1979
     32  CA         1.3500   -5.4840   31.5530 C.3   219  LYS219      0.1596
     33  C          0.4390   -6.6790   31.4570 C.2   219  LYS219      0.2287
     34  O          0.6990   -7.6040   30.6800 O.2   219  LYS219     -0.2864
     35  CB         2.7910   -5.9460   31.7660 C.3   219  LYS219      0.0298
     36  CG         3.7900   -4.7990   31.6610 C.3   219  LYS219      0.0038
     37  CD         5.2060   -5.2880   31.4900 C.3   219  LYS219      0.0206
     38  CE         6.1590   -4.1080   31.3140 C.3   219  LYS219      0.1093
     39  NZ         6.5020   -3.4540   32.6270 N.3   219  LYS219     -0.1314
     40  N         13.3870   -8.4970   35.0350 N.3   237  GLY237     -0.1210
     41  CA        13.3490   -7.1480   35.6160 C.3   237  GLY237      0.1956
     42  C         12.7570   -7.1350   37.0260 C.2   237  GLY237      0.2612
     43  O         12.7330   -8.1780   37.6830 O.2   237  GLY237     -0.2717
     44  N         12.2850   -5.9670   37.4900 N.am  238  GLY238     -0.1956
     45  CA        11.7340   -5.8080   38.8590 C.3   238  GLY238      0.1869
     46  C         10.3250   -6.3520   38.9420 C.2   238  GLY238      0.2309
     47  O          9.7530   -6.5520   40.0440 O.2   238  GLY238     -0.2863
     48  N         10.0040  -10.0680   40.9050 N.3   241  PHE241     -0.1241
     49  CA         9.8640  -10.1950   42.3710 C.3   241  PHE241      0.1605
     50  C          8.4320  -10.4120   42.8580 C.2   241  PHE241      0.2264
     51  O          8.2020  -11.2170   43.7750 O.2   241  PHE241     -0.2867
     52  CB        10.4900   -8.9900   43.0590 C.3   241  PHE241      0.0534
     53  CG        11.9470   -8.9080   42.8500 C.ar  241  PHE241     -0.0203
     54  CD1       12.5020   -7.8340   42.1930 C.ar  241  PHE241     -0.0042
     55  CD2       12.7680   -9.9430   43.2590 C.ar  241  PHE241     -0.0042
     56  CE1       13.8500   -7.7680   41.9800 C.ar  241  PHE241     -0.0003
     57  CE2       14.1380   -9.8850   43.0490 C.ar  241  PHE241     -0.0003
     58  CZ        14.6780   -8.7970   42.4170 C.ar  241  PHE241     -0.0000
     59  N         13.0050   -5.0580   47.3710 N.3   255  SER255     -0.1202
     60  CA        12.7750   -5.1270   45.9160 C.3   255  SER255      0.2020
     61  C         11.3470   -4.6810   45.6710 C.2   255  SER255      0.2618
     62  O         10.5070   -4.8050   46.5840 O.2   255  SER255     -0.2717
     63  CB        12.9040   -6.5560   45.3850 C.3   255  SER255      0.2103
     64  OG        14.1770   -7.1110   45.5830 O.3   255  SER255     -0.2182
     65  N         11.0860   -4.1950   44.4510 N.am  256  LEU256     -0.1979
     66  CA         9.7540   -3.7600   43.9970 C.3   256  LEU256      0.1596
     67  C          8.6920   -4.8430   44.0720 C.2   256  LEU256      0.2287
     68  O          8.8790   -5.9350   43.5280 O.2   256  LEU256     -0.2864
     69  CB         9.8150   -3.2840   42.5440 C.3   256  LEU256      0.0297
     70  CG        10.0260   -1.8020   42.2660 C.3   256  LEU256      0.0022
     71  CD1       11.4450   -1.3600   42.6150 C.3   256  LEU256      0.0001
     72  CD2        9.7190   -1.5280   40.8340 C.3   256  LEU256      0.0001
     73  N         18.3280    2.3640   46.1670 N.3   291  PHE291     -0.1241
     74  CA        18.1350    2.6820   44.7530 C.3   291  PHE291      0.1605
     75  C         19.1430    3.7190   44.2390 C.2   291  PHE291      0.2264
     76  O         18.7890    4.8670   43.9700 O.2   291  PHE291     -0.2867
     77  CB        16.6920    3.1380   44.4610 C.3   291  PHE291      0.0534
     78  CG        16.3220    3.0980   42.9790 C.ar  291  PHE291     -0.0203
     79  CD1       15.8730    4.2470   42.3260 C.ar  291  PHE291     -0.0042
     80  CD2       16.4350    1.9100   42.2440 C.ar  291  PHE291     -0.0042
     81  CE1       15.5360    4.2100   40.9720 C.ar  291  PHE291     -0.0003
     82  CE2       16.1080    1.8600   40.8920 C.ar  291  PHE291     -0.0003
     83  CZ        15.6600    3.0050   40.2510 C.ar  291  PHE291     -0.0000
     84  N         16.7470   -6.0160   44.9000 N.3   312  GLY312     -0.1210
     85  CA        17.3240   -6.6800   43.7240 C.3   312  GLY312      0.1956
     86  C         17.2210   -5.8060   42.4940 C.2   312  GLY312      0.2611
     87  O         16.1200   -5.3640   42.1310 O.2   312  GLY312     -0.2717
     88  N         18.3650   -5.5450   41.8580 N.am  313  LEU313     -0.1979
     89  CA        18.4300   -4.6550   40.6750 C.3   313  LEU313      0.1596
     90  C         19.0460   -5.2800   39.3880 C.2   313  LEU313      0.2287
     91  O         19.2510   -4.5950   38.3920 O.2   313  LEU313     -0.2864
     92  CB        19.1270   -3.3220   41.0140 C.3   313  LEU313      0.0297
     93  CG        18.6840   -2.4300   42.1840 C.3   313  LEU313      0.0022
     94  CD1       19.4580   -1.1050   42.1430 C.3   313  LEU313      0.0001
     95  CD2       17.1810   -2.1580   42.2240 C.3   313  LEU313      0.0001
     96  N         10.8720   -7.0610   24.8570 N.3   336  ASN336     -0.1225
     97  CA        10.4500   -5.7530   25.3730 C.3   336  ASN336      0.1785
     98  C         10.7710   -5.5280   26.8520 C.2   336  ASN336      0.2598
     99  O         10.2700   -6.2400   27.7310 O.2   336  ASN336     -0.2718
    100  CB         8.9710   -5.4780   25.0990 C.3   336  ASN336      0.1169
    101  CG         8.7490   -4.1020   24.4950 C.2   336  ASN336      0.2627
    102  OD1        8.9740   -3.0640   25.1410 O.2   336  ASN336     -0.2716
    103  ND2        8.3320   -4.0840   23.2310 N.am  336  ASN336     -0.0877
    104  N         11.6100   -4.5240   27.1020 N.am  337  GLY337     -0.1943
    105  CA        12.0020   -4.1580   28.4540 C.3   337  GLY337      0.1998
    106  C         13.2570   -4.8380   28.9550 C.2   337  GLY337      0.2480
    107  O         13.5970   -5.9540   28.5310 O.2   337  GLY337     -0.2729
    108  N         13.9460   -4.1810   29.8920 N.am  338  PRO338     -0.2726
    109  CA        15.1980   -4.6840   30.4220 C.3   338  PRO338      0.1402
    110  C         14.9620   -5.7560   31.4690 C.2   338  PRO338      0.2269
    111  O         13.8430   -5.9100   31.9620 O.2   338  PRO338     -0.2865
    112  CB        15.8150   -3.4360   31.0760 C.3   338  PRO338      0.0296
    113  CG        14.6430   -2.6450   31.5430 C.3   338  PRO338      0.0237
    114  CD        13.5690   -2.8880   30.5010 C.3   338  PRO338      0.0939
    115  N         17.0450   -5.7870   34.0230 N.3   340  GLY340     -0.1210
    116  CA        17.6910   -5.1670   35.1600 C.3   340  GLY340      0.1956
    117  C         17.9260   -3.7100   34.8940 C.2   340  GLY340      0.2612
    118  O         17.4940   -3.1770   33.8660 O.2   340  GLY340     -0.2717
    119  N         18.6420   -3.0710   35.8100 N.am  341  VAL341     -0.1965
    120  CA        18.8840   -1.6330   35.7230 C.3   341  VAL341      0.1727
    121  C         20.0910   -1.3110   34.8400 C.2   341  VAL341      0.2616
    122  O         21.0550   -0.7080   35.3080 O.2   341  VAL341     -0.2715
    123  CB        19.0310   -1.0120   37.1380 C.3   341  VAL341      0.0290
    124  CG1       19.1990    0.5040   37.0500 C.3   341  VAL341      0.0023
    125  CG2       17.8210   -1.4050   38.0130 C.3   341  VAL341      0.0023
    126  N         20.0060   -1.7060   33.5660 N.am  342  PHE342     -0.1960
    127  CA        21.0700   -1.4850   32.5620 C.3   342  PHE342      0.1771
    128  C         21.6160   -0.0380   32.4540 C.2   342  PHE342      0.2619
    129  O         22.7600    0.1840   32.0610 O.2   342  PHE342     -0.2715
    130  CB        20.6480   -2.0620   31.1920 C.3   342  PHE342      0.0574
    131  CG        19.6550   -1.2110   30.4360 C.ar  342  PHE342     -0.0200
    132  CD1       20.0180   -0.6100   29.2380 C.ar  342  PHE342     -0.0042
    133  CD2       18.3710   -1.0030   30.9220 C.ar  342  PHE342     -0.0042
    134  CE1       19.1210    0.1860   28.5410 C.ar  342  PHE342     -0.0003
    135  CE2       17.4680   -0.2070   30.2370 C.ar  342  PHE342     -0.0003
    136  CZ        17.8430    0.3900   29.0430 C.ar  342  PHE342     -0.0000
    137  N         20.7890    0.9360   32.8170 N.am  343  GLU343     -0.1977
    138  CA        21.2500    2.3250   33.0590 C.3   343  GLU343      0.1602
    139  C         22.5500    2.4480   33.8830 C.2   343  GLU343      0.2287
    140  O         23.2960    3.4150   33.7290 O.2   343  GLU343     -0.2864
    141  CB        20.1580    3.1460   33.7790 C.3   343  GLU343      0.0415
    142  CG        18.8630    3.3670   32.9800 C.3   343  GLU343      0.1163
    143  CD        17.7600    2.3550   33.2950 C.2   343  GLU343      0.3649
    144  OE1       17.9510    1.4900   34.1680 O.co2 343  GLU343     -0.2457
    145  OE2       16.6800    2.4310   32.6670 O.co2 343  GLU343     -0.2457
    146  N          3.9310   -2.0530   22.1500 N.3   386  LEU386     -0.1245
    147  CA         3.1480   -2.6520   23.2330 C.3   386  LEU386      0.1561
    148  C          1.6550   -2.6060   22.9160 C.2   386  LEU386      0.2260
    149  O          0.9280   -3.5650   23.1550 O.2   386  LEU386     -0.2867
    150  CB         3.4150   -1.8830   24.5190 C.3   386  LEU386      0.0270
    151  CG         4.0090   -2.5740   25.7250 C.3   386  LEU386      0.0019
    152  CD1        5.3920   -3.0700   25.3600 C.3   386  LEU386      0.0001
    153  CD2        4.0520   -1.5620   26.9040 C.3   386  LEU386      0.0001
@<TRIPOS>BOND
     1   146   147    1
     2   148   149    2
     3   148   147    1
     4   103   101   am
     5   147   150    1
     6   101   100    1
     7   101   102    2
     8   150   151    1
     9    96    97    1
    10   100    97    1
    11   152   151    1
    12    97    98    1
    13   151   153    1
    14    98   104   am
    15    98    99    2
    16   104   105    1
    17   105   106    1
    18   107   106    2
    19   134   136   ar
    20   134   132   ar
    21   106   108   am
    22   136   135   ar
    23   132   131   ar
    24   108   109    1
    25   108   114    1
    26     1     2    1
    27   135   133   ar
    28   109   112    1
    29   109   110    1
    30   131   133   ar
    31   131   130    1
    32   114   113    1
    33    34    33    2
    34     4     3    2
    35   112   113    1
    36   130   127    1
    37    26    25    2
    38    38    37    1
    39    38    39    1
    40     2     3    1
    41    33    32    1
    42   110   111    2
    43    37    36    1
    44    32    35    1
    45    32    31    1
    46    36    35    1
    47     3     5   am
    48   129   128    2
    49    25    31   am
    50    25    24    1
    51   128   127    1
    52   128   137   am
    53   127   126    1
    54   145   143   ar
    55   137   138    1
    56     5     6    1
    57   142   143    1
    58   142   141    1
    59   138   141    1
    60   138   139    1
    61    29    28   ar
    62   143   144   ar
    63     6     7    1
    64    27    24    1
    65    27    28    1
    66   126   121   am
    67    24    23    1
    68   140   139    2
    69    28    30   ar
    70   118   117    2
    71   115   116    1
    72   121   122    2
    73   121   120    1
    74     7     9   am
    75     7     8    2
    76   117   116    1
    77   117   119   am
    78    40    41    1
    79    17    16    2
    80     9    10    1
    81    41    42    1
    82   120   119    1
    83   120   123    1
    84    16    15    1
    85    14    15    1
    86    14    11   am
    87    10    13    1
    88    10    11    1
    89    42    44   am
    90    42    43    2
    91   124   123    1
    92   123   125    1
    93    15    18    1
    94    11    12    2
    95    18    19    1
    96    44    45    1
    97    91    90    2
    98    19    20    1
    99    45    46    1
   100    46    47    2
   101    90    89    1
   102    20    21    1
   103    83    82   ar
   104    83    81   ar
   105    89    92    1
   106    89    88    1
   107    72    70    1
   108    82    80   ar
   109    48    49    1
   110    81    79   ar
   111    92    93    1
   112    21    22    1
   113    88    86   am
   114    56    54   ar
   115    56    58   ar
   116    87    86    2
   117    94    93    1
   118    93    95    1
   119    54    53   ar
   120    80    78   ar
   121    70    69    1
   122    70    71    1
   123    79    78   ar
   124    49    50    1
   125    49    52    1
   126    58    57   ar
   127    86    85    1
   128    69    66    1
   129    53    52    1
   130    53    55   ar
   131    50    51    2
   132    78    77    1
   133    57    55   ar
   134    68    67    2
   135    85    84    1
   136    76    75    2
   137    66    67    1
   138    66    65    1
   139    75    74    1
   140    65    61   am
   141    77    74    1
   142    74    73    1
   143    63    64    1
   144    63    60    1
   145    61    60    1
   146    61    62    2
   147    60    59    1
