@<TRIPOS>MOLECULE
tmp/3c3dD00.pdb
 144 142 0 0 0
SMALL
GASTEIGER

@<TRIPOS>ATOM
      1  N        -58.8510   87.1860   47.7750 N.3    42  ILE42      -0.1245
      2  CA       -58.4120   88.5500   47.9310 C.3    42  ILE42       0.1561
      3  C        -56.8980   88.5430   48.2170 C.2    42  ILE42       0.2260
      4  O        -56.4300   87.8930   49.1600 O.2    42  ILE42      -0.2867
      5  CB       -59.1650   89.2520   49.0830 C.3    42  ILE42       0.0252
      6  CG1      -60.6630   89.2660   48.7880 C.3    42  ILE42       0.0019
      7  CG2      -58.7110   90.7020   49.2200 C.3    42  ILE42       0.0019
      8  CD1      -61.4520   90.0390   49.7970 C.3    42  ILE42       0.0001
      9  N        -54.6200   91.2850   48.9300 N.3    44  PRO44      -0.2102
     10  CA       -54.4660   92.6790   49.3140 C.3    44  PRO44       0.1504
     11  C        -53.1770   93.3840   48.9040 C.2    44  PRO44       0.2575
     12  O        -53.2320   94.5150   48.4220 O.2    44  PRO44      -0.2718
     13  CB       -54.6870   92.6350   50.8300 C.3    44  PRO44       0.0282
     14  CG       -54.1420   91.3090   51.2050 C.3    44  PRO44       0.0208
     15  CD       -54.6860   90.4150   50.1190 C.3    44  PRO44       0.0893
     16  N        -52.0290   92.7360   49.0760 N.am   45  ASP45      -0.1974
     17  CA       -50.7610   93.3700   48.7180 C.3    45  ASP45       0.1708
     18  C        -50.5720   93.3860   47.1990 C.2    45  ASP45       0.2293
     19  O        -50.0160   94.3160   46.6250 O.2    45  ASP45      -0.2864
     20  CB       -49.6100   92.6470   49.4210 C.3    45  ASP45       0.1436
     21  CG       -49.7960   92.6160   50.9330 C.2    45  ASP45       0.3671
     22  OD1      -49.7810   93.6980   51.5670 O.co2  45  ASP45      -0.2456
     23  OD2      -49.9780   91.5100   51.4930 O.co2  45  ASP45      -0.2456
     24  N        -53.0910   93.4500   45.0000 N.3    47  ASP47      -0.1225
     25  CA       -54.0650   94.4030   44.4860 C.3    47  ASP47       0.1805
     26  C        -53.6640   95.8550   44.6890 C.2    47  ASP47       0.2598
     27  O        -53.8830   96.6970   43.8090 O.2    47  ASP47      -0.2718
     28  CB       -55.4340   94.1320   45.1240 C.3    47  ASP47       0.1424
     29  CG       -56.0490   92.8440   44.6140 C.2    47  ASP47       0.3668
     30  OD1      -57.0350   92.3460   45.2040 O.co2  47  ASP47      -0.2456
     31  OD2      -55.5310   92.3360   43.5990 O.co2  47  ASP47      -0.2456
     32  N        -53.0850   96.1490   45.8470 N.am   48  THR48      -0.1953
     33  CA       -52.6470   97.5010   46.1370 C.3    48  THR48       0.1897
     34  C        -51.6210   97.9220   45.0770 C.2    48  THR48       0.2313
     35  O        -51.6680   99.0360   44.5680 O.2    48  THR48      -0.2863
     36  CB       -52.0490   97.5750   47.5650 C.3    48  THR48       0.1794
     37  OG1      -53.1160   97.4320   48.5150 O.3    48  THR48      -0.2208
     38  CG2      -51.3430   98.9060   47.8130 C.3    48  THR48       0.0378
     39  N        -53.3590   98.4170   41.6800 N.3    51  TYR51      -0.1241
     40  CA       -54.1120   99.6630   41.6980 C.3    51  TYR51       0.1605
     41  C        -53.1820  100.8680   41.6450 C.2    51  TYR51       0.2264
     42  O        -53.4640  101.8660   40.9880 O.2    51  TYR51      -0.2867
     43  CB       -54.9880   99.7300   42.9530 C.3    51  TYR51       0.0534
     44  CG       -56.1060   98.7060   42.9910 C.ar   51  TYR51      -0.0201
     45  CD1      -56.7040   98.3430   44.1990 C.ar   51  TYR51      -0.0009
     46  CD2      -56.5570   98.0870   41.8230 C.ar   51  TYR51      -0.0009
     47  CE1      -57.7150   97.3870   44.2500 C.ar   51  TYR51       0.0417
     48  CE2      -57.5750   97.1280   41.8630 C.ar   51  TYR51       0.0417
     49  CZ       -58.1420   96.7810   43.0800 C.ar   51  TYR51       0.1957
     50  OH       -59.1020   95.8020   43.1300 O.3    51  TYR51      -0.2866
     51  N        -55.3700  101.5030   50.0810 N.3    63  TRP63      -0.1227
     52  CA       -55.8640  100.1670   49.7880 C.3    63  TRP63       0.1737
     53  C        -57.2170  100.3630   49.1440 C.2    63  TRP63       0.2596
     54  O        -57.9080  101.3430   49.4370 O.2    63  TRP63      -0.2718
     55  CB       -55.9650   99.2700   51.0330 C.3    63  TRP63       0.0564
     56  CG       -56.8450   99.7520   52.1510 C.ar   63  TRP63       0.0003
     57  CD1      -56.4300  100.2900   53.3390 C.ar   63  TRP63       0.0946
     58  CD2      -58.2780   99.7100   52.2080 C.ar   63  TRP63       0.0152
     59  NE1      -57.5140  100.5840   54.1330 N.ar   63  TRP63      -0.2442
     60  CE2      -58.6610  100.2410   53.4650 C.ar   63  TRP63       0.0810
     61  CE3      -59.2740   99.2800   51.3200 C.ar   63  TRP63       0.0012
     62  CZ2      -59.9990  100.3530   53.8590 C.ar   63  TRP63       0.0191
     63  CZ3      -60.6130   99.3920   51.7100 C.ar   63  TRP63       0.0001
     64  CH2      -60.9610   99.9290   52.9760 C.ar   63  TRP63       0.0015
     65  N        -57.5840   99.4600   48.2430 N.am   64  GLY64      -0.1957
     66  CA       -58.8640   99.5910   47.5830 C.3    64  GLY64       0.1869
     67  C        -58.8190  100.6230   46.4730 C.2    64  GLY64       0.2309
     68  O        -57.8010  101.2830   46.2600 O.2    64  GLY64      -0.2863
     69  N        -64.2580   92.7020   56.0320 N.3    84  LEU84      -0.1231
     70  CA       -63.5340   93.9000   55.6230 C.3    84  LEU84       0.1693
     71  C        -64.4080   94.6300   54.6300 C.2    84  LEU84       0.2592
     72  O        -65.2640   94.0200   53.9980 O.2    84  LEU84      -0.2718
     73  CB       -62.1930   93.5440   54.9730 C.3    84  LEU84       0.0284
     74  CG       -62.1750   92.8540   53.6080 C.3    84  LEU84       0.0019
     75  CD1      -60.7290   92.5480   53.2450 C.3    84  LEU84       0.0001
     76  CD2      -62.9970   91.5670   53.6400 C.3    84  LEU84       0.0001
     77  N        -64.1970   95.9320   54.4910 N.am   85  LYS85      -0.1966
     78  CA       -65.0010   96.7150   53.5800 C.3    85  LYS85       0.1728
     79  C        -64.6220   96.4330   52.1180 C.2    85  LYS85       0.2616
     80  O        -63.5880   96.8880   51.6260 O.2    85  LYS85      -0.2715
     81  CB       -64.8510   98.2030   53.9140 C.3    85  LYS85       0.0311
     82  CG       -65.9720   99.0820   53.3450 C.3    85  LYS85       0.0038
     83  CD       -65.8300  100.5320   53.7940 C.3    85  LYS85       0.0206
     84  CE       -66.9770  101.4180   53.2820 C.3    85  LYS85       0.1093
     85  NZ       -66.8200  102.8250   53.7720 N.3    85  LYS85      -0.1314
     86  N        -65.4680   95.6750   51.4270 N.am   86  LEU86      -0.1977
     87  CA       -65.2200   95.3230   50.0300 C.3    86  LEU86       0.1596
     88  C        -66.0330   96.1590   49.0640 C.2    86  LEU86       0.2287
     89  O        -67.2600   96.0610   49.0540 O.2    86  LEU86      -0.2864
     90  CB       -65.5770   93.8620   49.7830 C.3    86  LEU86       0.0297
     91  CG       -64.4500   92.8840   49.5070 C.3    86  LEU86       0.0022
     92  CD1      -63.2950   93.1710   50.4640 C.3    86  LEU86       0.0001
     93  CD2      -64.9580   91.4620   49.6670 C.3    86  LEU86       0.0001
     94  N        -63.5790   96.8470   43.3710 N.3    90  ASP90      -0.1239
     95  CA       -62.5220   96.0150   43.9430 C.3    90  ASP90       0.1674
     96  C        -62.9240   94.5380   43.8340 C.2    90  ASP90       0.2266
     97  O        -62.1020   93.6730   43.4970 O.2    90  ASP90      -0.2867
     98  CB       -62.3400   96.3910   45.4200 C.3    90  ASP90       0.1410
     99  CG       -61.1600   95.6900   46.0770 C.2    90  ASP90       0.3668
    100  OD1      -61.2110   95.4740   47.3060 O.co2  90  ASP90      -0.2456
    101  OD2      -60.1750   95.3740   45.3840 O.co2  90  ASP90      -0.2456
    102  N        -61.2750   90.6390   42.4220 N.3    94  HIS94      -0.1241
    103  CA       -61.2790   89.3350   43.0830 C.3    94  HIS94       0.1621
    104  C        -61.9260   88.2900   42.1700 C.2    94  HIS94       0.2264
    105  O        -61.4060   87.1800   42.0150 O.2    94  HIS94      -0.2867
    106  CB       -62.0660   89.3970   44.4010 C.3    94  HIS94       0.0745
    107  CG       -61.6600   90.5210   45.3020 C.ar   94  HIS94       0.0817
    108  ND1      -62.5000   91.0450   46.2580 N.ar   94  HIS94      -0.2268
    109  CD2      -60.5150   91.2380   45.3790 C.ar   94  HIS94       0.1154
    110  CE1      -61.8930   92.0370   46.8830 C.ar   94  HIS94       0.1986
    111  NE2      -60.6850   92.1740   46.3690 N.ar   94  HIS94      -0.2212
    112  N        -54.3620   87.0280   60.5380 N.3   143  PHE143     -0.1241
    113  CA       -53.9390   88.4240   60.5820 C.3   143  PHE143      0.1605
    114  C        -55.1200   89.3860   60.4370 C.2   143  PHE143      0.2264
    115  O        -55.2520   90.3280   61.2160 O.2   143  PHE143     -0.2867
    116  CB       -52.9110   88.7140   59.4750 C.3   143  PHE143      0.0534
    117  CG       -52.3210   90.0930   59.5520 C.ar  143  PHE143     -0.0203
    118  CD1      -51.2710   90.3620   60.4220 C.ar  143  PHE143     -0.0042
    119  CD2      -52.8550   91.1360   58.8020 C.ar  143  PHE143     -0.0042
    120  CE1      -50.7620   91.6500   60.5510 C.ar  143  PHE143     -0.0003
    121  CE2      -52.3570   92.4320   58.9200 C.ar  143  PHE143     -0.0003
    122  CZ       -51.3060   92.6910   59.8000 C.ar  143  PHE143     -0.0000
    123  N        -55.9770   92.3410   62.8630 N.3   147  TRP147     -0.1227
    124  CA       -55.8390   93.7330   62.4360 C.3   147  TRP147      0.1737
    125  C        -57.1240   94.4890   62.1190 C.2   147  TRP147      0.2595
    126  O        -57.2990   95.6240   62.5550 O.2   147  TRP147     -0.2718
    127  CB       -54.8970   93.8180   61.2370 C.3   147  TRP147      0.0564
    128  CG       -54.5850   95.2270   60.8360 C.ar  147  TRP147      0.0003
    129  CD1      -54.8980   95.8310   59.6540 C.ar  147  TRP147      0.0946
    130  CD2      -53.9200   96.2160   61.6290 C.ar  147  TRP147      0.0152
    131  NE1      -54.4710   97.1380   59.6600 N.ar  147  TRP147     -0.2442
    132  CE2      -53.8670   97.4010   60.8610 C.ar  147  TRP147      0.0810
    133  CE3      -53.3630   96.2170   62.9140 C.ar  147  TRP147      0.0012
    134  CZ2      -53.2790   98.5770   61.3360 C.ar  147  TRP147      0.0191
    135  CZ3      -52.7770   97.3850   63.3880 C.ar  147  TRP147      0.0001
    136  CH2      -52.7400   98.5500   62.5980 C.ar  147  TRP147      0.0015
    137  N        -58.0190   93.8740   61.3580 N.am  148  ILE148     -0.1980
    138  CA       -59.2680   94.5250   60.9960 C.3   148  ILE148      0.1595
    139  C        -60.3830   94.2200   61.9920 C.2   148  ILE148      0.2287
    140  O        -61.0550   95.1240   62.4840 O.2   148  ILE148     -0.2864
    141  CB       -59.7000   94.1100   59.5890 C.3   148  ILE148      0.0276
    142  CG1      -58.6070   94.5000   58.5910 C.3   148  ILE148      0.0022
    143  CG2      -61.0120   94.7760   59.2220 C.3   148  ILE148      0.0022
    144  CD1      -58.8590   94.0100   57.1900 C.3   148  ILE148      0.0001
@<TRIPOS>BOND
     1    42    41    2
     2    41    40    1
     3    39    40    1
     4    40    43    1
     5    46    48   ar
     6    46    44   ar
     7    48    49   ar
     8   105   104    2
     9   104   103    1
    10   102   103    1
    11    43    44    1
    12    44    45   ar
    13    49    50    1
    14    49    47   ar
    15   103   106    1
    16    94    95    1
    17    97    96    2
    18    31    29   ar
    19    27    26    2
    20    96    95    1
    21    95    98    1
    22    45    47   ar
    23   106   107    1
    24    25    26    1
    25    25    24    1
    26    25    28    1
    27    35    34    2
    28    29    28    1
    29    29    30   ar
    30    26    32   am
    31    34    33    1
    32   107   109   ar
    33   107   108   ar
    34   109   111   ar
    35   101    99   ar
    36    98    99    1
    37    32    33    1
    38    99   100   ar
    39    33    36    1
    40   108   110   ar
    41    68    67    2
    42   111   110   ar
    43    67    66    1
    44    19    18    2
    45    18    17    1
    46    36    38    1
    47    36    37    1
    48    66    65    1
    49     1     2    1
    50     2     3    1
    51     2     5    1
    52     3     4    2
    53    65    53   am
    54    12    11    2
    55    17    16    1
    56    17    20    1
    57     6     5    1
    58     6     8    1
    59    11    16   am
    60    11    10    1
    61     9    10    1
    62     9    15    1
    63    89    88    2
    64    88    87    1
    65     5     7    1
    66    53    54    2
    67    53    52    1
    68    10    13    1
    69    20    21    1
    70    91    93    1
    71    91    90    1
    72    91    92    1
    73    90    87    1
    74    52    51    1
    75    52    55    1
    76    87    86    1
    77    15    14    1
    78    13    14    1
    79    21    23   ar
    80    21    22   ar
    81    55    56    1
    82    61    63   ar
    83    61    58   ar
    84    86    79   am
    85    80    79    2
    86    63    64   ar
    87    79    78    1
    88    56    58   ar
    89    56    57   ar
    90    58    60   ar
    91    64    62   ar
    92    75    74    1
    93    84    85    1
    94    84    83    1
    95    57    59   ar
    96    82    83    1
    97    82    81    1
    98    60    62   ar
    99    60    59   ar
   100    78    81    1
   101    78    77    1
   102    74    76    1
   103    74    73    1
   104    72    71    2
   105    77    71   am
   106    71    70    1
   107    73    70    1
   108    70    69    1
   109   144   142    1
   110   142   141    1
   111   119   121   ar
   112   119   117   ar
   113   121   122   ar
   114   143   141    1
   115   116   117    1
   116   116   113    1
   117   117   118   ar
   118   141   138    1
   119   129   131   ar
   120   129   128   ar
   121   131   132   ar
   122   122   120   ar
   123   118   120   ar
   124   114   113    1
   125   114   115    2
   126   112   113    1
   127   128   127    1
   128   128   130   ar
   129   132   134   ar
   130   132   130   ar
   131   138   137    1
   132   138   139    1
   133   127   124    1
   134   134   136   ar
   135   137   125   am
   136   130   133   ar
   137   139   140    2
   138   125   124    1
   139   125   126    2
   140   124   123    1
   141   136   135   ar
   142   133   135   ar
