@<TRIPOS>MOLECULE
tmp/3c3eA00.pdb
 115 113 0 0 0
SMALL
GASTEIGER

@<TRIPOS>ATOM
      1  N        110.0620   26.0040    8.2220 N.3    42  ILE42      -0.1245
      2  CA       108.8950   25.1960    8.5420 C.3    42  ILE42       0.1561
      3  C        107.6890   26.1120    8.6750 C.2    42  ILE42       0.2260
      4  O        107.7890   27.1830    9.2610 O.2    42  ILE42      -0.2867
      5  CB       109.0980   24.4670    9.8870 C.3    42  ILE42       0.0252
      6  CG1      110.3670   23.6280    9.8570 C.3    42  ILE42       0.0019
      7  CG2      107.9360   23.5710   10.1780 C.3    42  ILE42       0.0019
      8  CD1      110.5700   22.8410   11.1430 C.3    42  ILE42       0.0001
      9  N        104.2900   25.3760   10.0740 N.3    44  PRO44      -0.2116
     10  CA       103.3260   24.4690   10.6900 C.3    44  PRO44       0.1372
     11  C        101.8900   24.6750   10.2440 C.2    44  PRO44       0.2244
     12  O        101.2330   23.7450    9.7910 O.2    44  PRO44      -0.2868
     13  CB       103.5380   24.7140   12.1790 C.3    44  PRO44       0.0268
     14  CG       103.9740   26.1420   12.2360 C.3    44  PRO44       0.0207
     15  CD       104.9380   26.2230   11.0900 C.3    44  PRO44       0.0892
     16  N        101.6380   24.2210    6.4340 N.3    47  ASP47      -0.1225
     17  CA       101.8680   22.8190    6.0910 C.3    47  ASP47       0.1805
     18  C        100.6650   21.9630    6.4250 C.2    47  ASP47       0.2598
     19  O        100.2390   21.1460    5.6110 O.2    47  ASP47      -0.2718
     20  CB       103.0630   22.2680    6.8590 C.3    47  ASP47       0.1424
     21  CG       104.3830   22.6410    6.2360 C.2    47  ASP47       0.3668
     22  OD1      105.4310   22.2240    6.7820 O.co2  47  ASP47      -0.2456
     23  OD2      104.3670   23.3380    5.2060 O.co2  47  ASP47      -0.2456
     24  N        100.1290   22.1250    7.6320 N.am   48  THR48      -0.1953
     25  CA        98.9800   21.3340    8.0180 C.3    48  THR48       0.1897
     26  C         97.8740   21.5040    6.9860 C.2    48  THR48       0.2313
     27  O         97.2880   20.5090    6.5600 O.2    48  THR48      -0.2863
     28  CB        98.4490   21.6990    9.4140 C.3    48  THR48       0.1794
     29  OG1       99.2390   21.0470   10.4170 O.3    48  THR48      -0.2208
     30  CG2       97.0140   21.2280    9.5650 C.3    48  THR48       0.0378
     31  N         98.7030   19.5530    3.8260 N.3    51  TYR51      -0.1241
     32  CA        98.5450   18.1050    4.0410 C.3    51  TYR51       0.1605
     33  C         97.0650   17.7300    4.1570 C.2    51  TYR51       0.2264
     34  O         96.6560   16.6280    3.7800 O.2    51  TYR51      -0.2867
     35  CB        99.2920   17.6440    5.3220 C.3    51  TYR51       0.0534
     36  CG       100.8130   17.7760    5.2870 C.ar   51  TYR51      -0.0201
     37  CD1      101.5600   17.8700    6.4680 C.ar   51  TYR51      -0.0009
     38  CD2      101.4960   17.9120    4.0760 C.ar   51  TYR51      -0.0009
     39  CE1      102.9500   18.1220    6.4360 C.ar   51  TYR51       0.0417
     40  CE2      102.8740   18.1580    4.0360 C.ar   51  TYR51       0.0417
     41  CZ       103.5930   18.2720    5.2160 C.ar   51  TYR51       0.1957
     42  OH       104.9320   18.6000    5.1830 O.3    51  TYR51      -0.2866
     43  N         98.9360   17.2760   12.8550 N.3    63  TRP63      -0.1227
     44  CA       100.1510   17.9870   12.4780 C.3    63  TRP63       0.1737
     45  C        101.0590   16.9260   11.8780 C.2    63  TRP63       0.2596
     46  O        100.9740   15.7540   12.2390 O.2    63  TRP63      -0.2718
     47  CB       100.8300   18.6840   13.6690 C.3    63  TRP63       0.0564
     48  CG       101.3390   17.7940   14.7580 C.ar   63  TRP63       0.0003
     49  CD1      100.7510   17.5530   15.9670 C.ar   63  TRP63       0.0946
     50  CD2      102.5470   17.0300   14.7450 C.ar   63  TRP63       0.0152
     51  NE1      101.5170   16.6870   16.7090 N.ar   63  TRP63      -0.2442
     52  CE2      102.6260   16.3480   15.9820 C.ar   63  TRP63       0.0810
     53  CE3      103.5710   16.8510   13.8070 C.ar   63  TRP63       0.0012
     54  CZ2      103.6900   15.5000   16.3060 C.ar   63  TRP63       0.0191
     55  CZ3      104.6340   16.0020   14.1300 C.ar   63  TRP63       0.0001
     56  CH2      104.6800   15.3400   15.3710 C.ar   63  TRP63       0.0015
     57  N        101.8890   17.3240   10.9230 N.am   64  GLY64      -0.1957
     58  CA       102.7740   16.3640   10.2870 C.3    64  GLY64       0.1869
     59  C        102.0560   15.3670    9.3900 C.2    64  GLY64       0.2309
     60  O        100.8300   15.2480    9.4140 O.2    64  GLY64      -0.2863
     61  N        111.6560   20.0550   17.2340 N.3    84  LEU84      -0.1231
     62  CA       110.3590   19.4370   17.0010 C.3    84  LEU84       0.1693
     63  C        110.5360   18.1660   16.1890 C.2    84  LEU84       0.2592
     64  O        111.3730   18.1010   15.2940 O.2    84  LEU84      -0.2718
     65  CB       109.4190   20.3960   16.2650 C.3    84  LEU84       0.0284
     66  CG       110.0380   21.3870   15.2820 C.3    84  LEU84       0.0019
     67  CD1      109.0130   21.7700   14.2460 C.3    84  LEU84       0.0001
     68  CD2      110.5350   22.6190   16.0360 C.3    84  LEU84       0.0001
     69  N        109.7470   17.1480   16.5060 N.am   85  LYS85      -0.1966
     70  CA       109.8470   15.8760   15.8030 C.3    85  LYS85       0.1728
     71  C        109.5470   16.0830   14.3270 C.2    85  LYS85       0.2616
     72  O        108.3930   16.2650   13.9410 O.2    85  LYS85      -0.2715
     73  CB       108.8720   14.8520   16.4160 C.3    85  LYS85       0.0311
     74  CG       109.0920   13.3980   15.9700 C.3    85  LYS85       0.0038
     75  CD       108.3970   12.4040   16.9100 C.3    85  LYS85       0.0206
     76  CE       108.8090   10.9540   16.6270 C.3    85  LYS85       0.1093
     77  NZ       108.2260    9.9740   17.5930 N.3    85  LYS85      -0.1314
     78  N        110.5880   16.0780   13.5020 N.am   86  LEU86      -0.1977
     79  CA       110.3950   16.2570   12.0710 C.3    86  LEU86       0.1596
     80  C        110.4080   14.9220   11.3560 C.2    86  LEU86       0.2287
     81  O        111.3850   14.1730   11.4390 O.2    86  LEU86      -0.2864
     82  CB       111.4890   17.1390   11.4750 C.3    86  LEU86       0.0297
     83  CG       111.6200   18.5450   12.0530 C.3    86  LEU86       0.0022
     84  CD1      112.6670   19.3180   11.2700 C.3    86  LEU86       0.0001
     85  CD2      110.2770   19.2510   11.9960 C.3    86  LEU86       0.0001
     86  N        107.7920   14.8090    5.9330 N.3    90  ASP90      -0.1239
     87  CA       107.4510   16.1570    6.3450 C.3    90  ASP90       0.1674
     88  C        108.6450   17.0870    6.0640 C.2    90  ASP90       0.2266
     89  O        108.4650   18.2340    5.6770 O.2    90  ASP90      -0.2867
     90  CB       107.1100   16.1610    7.8380 C.3    90  ASP90       0.1410
     91  CG       106.7040   17.5320    8.3460 C.2    90  ASP90       0.3668
     92  OD1      106.9180   17.7930    9.5490 O.co2  90  ASP90      -0.2456
     93  OD2      106.1710   18.3410    7.5550 O.co2  90  ASP90      -0.2456
     94  N        105.3710   26.4650   23.6430 N.3   147  TRP147     -0.1227
     95  CA       104.4050   25.3830   23.4900 C.3   147  TRP147      0.1737
     96  C        105.0480   24.0000   23.3920 C.2   147  TRP147      0.2595
     97  O        104.8500   23.1660   24.2710 O.2   147  TRP147     -0.2718
     98  CB       103.5200   25.6230   22.2660 C.3   147  TRP147      0.0564
     99  CG       102.3980   24.6380   22.1640 C.ar  147  TRP147      0.0003
    100  CD1      102.2070   23.6980   21.1880 C.ar  147  TRP147      0.0946
    101  CD2      101.3220   24.4780   23.0910 C.ar  147  TRP147      0.0152
    102  NE1      101.0750   22.9630   21.4540 N.ar  147  TRP147     -0.2442
    103  CE2      100.5120   23.4210   22.6170 C.ar  147  TRP147      0.0810
    104  CE3      100.9620   25.1260   24.2780 C.ar  147  TRP147      0.0012
    105  CZ2       99.3640   22.9980   23.2910 C.ar  147  TRP147      0.0191
    106  CZ3       99.8220   24.7060   24.9480 C.ar  147  TRP147      0.0001
    107  CH2       99.0360   23.6510   24.4520 C.ar  147  TRP147      0.0015
    108  N        105.8060   23.7530   22.3260 N.am  148  ILE148     -0.1980
    109  CA       106.4640   22.4580   22.1420 C.3   148  ILE148      0.1595
    110  C        107.5500   22.2240   23.2030 C.2   148  ILE148      0.2287
    111  O        107.5050   21.2330   23.9380 O.2   148  ILE148     -0.2864
    112  CB       107.0890   22.3270   20.7040 C.3   148  ILE148      0.0276
    113  CG1      106.0010   21.9990   19.6710 C.3   148  ILE148      0.0022
    114  CG2      108.1500   21.2320   20.6750 C.3   148  ILE148      0.0022
    115  CD1      105.0890   23.1580   19.3160 C.3   148  ILE148      0.0001
@<TRIPOS>BOND
     1    34    33    2
     2    31    32    1
     3    40    38   ar
     4    40    41   ar
     5    32    33    1
     6    32    35    1
     7    38    36   ar
     8    42    41    1
     9    23    21   ar
    10    41    39   ar
    11    36    35    1
    12    36    37   ar
    13    19    18    2
    14    89    88    2
    15    86    87    1
    16    88    87    1
    17    17    18    1
    18    17    16    1
    19    17    20    1
    20    21    22   ar
    21    21    20    1
    22    87    90    1
    23    18    24   am
    24    39    37   ar
    25    27    26    2
    26    26    25    1
    27    93    91   ar
    28    24    25    1
    29    90    91    1
    30    25    28    1
    31     1     2    1
    32    91    92   ar
    33     2     3    1
    34     2     5    1
    35     3     4    2
    36    59    60    2
    37    59    58    1
    38    28    30    1
    39    28    29    1
    40    12    11    2
    41     6     5    1
    42     6     8    1
    43     5     7    1
    44     9    10    1
    45     9    15    1
    46    11    10    1
    47    58    57    1
    48    10    13    1
    49    57    45   am
    50    15    14    1
    51    84    83    1
    52    80    81    2
    53    80    79    1
    54    82    83    1
    55    82    79    1
    56    45    46    2
    57    45    44    1
    58    85    83    1
    59    79    78    1
    60    13    14    1
    61    44    43    1
    62    44    47    1
    63    78    71   am
    64    47    48    1
    65    53    55   ar
    66    53    50   ar
    67    72    71    2
    68    55    56   ar
    69    67    66    1
    70    71    70    1
    71    50    48   ar
    72    50    52   ar
    73    48    49   ar
    74    66    68    1
    75    66    65    1
    76    64    63    2
    77    56    54   ar
    78    70    73    1
    79    70    69    1
    80    49    51   ar
    81    74    73    1
    82    74    75    1
    83    52    54   ar
    84    52    51   ar
    85    63    69   am
    86    63    62    1
    87    65    62    1
    88    76    75    1
    89    76    77    1
    90    62    61    1
    91   115   113    1
    92   113   112    1
    93   114   112    1
    94   112   109    1
    95   100   102   ar
    96   100    99   ar
    97   102   103   ar
    98   109   108    1
    99   109   110    1
   100    99    98    1
   101    99   101   ar
   102    98    95    1
   103   108    96   am
   104   103   101   ar
   105   103   105   ar
   106   101   104   ar
   107   110   111    2
   108   105   107   ar
   109    96    95    1
   110    96    97    2
   111    95    94    1
   112   104   106   ar
   113   107   106   ar
