@<TRIPOS>MOLECULE
tmp/3c3eA01.pdb
 183 177 0 0 0
SMALL
GASTEIGER

@<TRIPOS>ATOM
      1  N         94.5220   28.5390   11.1190 N.3     5  GLY5       -0.1210
      2  CA        95.6490   28.2940   11.9970 C.3     5  GLY5        0.1956
      3  C         96.2300   26.9600   11.5660 C.2     5  GLY5        0.2612
      4  O         96.5130   26.7750   10.3870 O.2     5  GLY5       -0.2717
      5  N         96.4010   26.0200   12.4880 N.am    6  GLY6       -0.1942
      6  CA        96.9450   24.7220   12.1230 C.3     6  GLY6        0.2014
      7  C         96.2190   23.5650   12.7830 C.2     6  GLY6        0.2640
      8  O         96.6760   22.4180   12.7510 O.2     6  GLY6       -0.2714
      9  N         95.0730   23.8570   13.3820 N.am    7  THR7       -0.1936
     10  CA        94.2950   22.8310   14.0570 C.3     7  THR7        0.2028
     11  C         92.7980   23.0840   13.9130 C.2     7  THR7        0.2642
     12  O         92.1020   22.3710   13.1860 O.2     7  THR7       -0.2714
     13  CB        94.6440   22.7790   15.5500 C.3     7  THR7        0.1808
     14  OG1       96.0660   22.7570   15.7140 O.3     7  THR7       -0.2208
     15  CG2       94.0670   21.5300   16.1820 C.3     7  THR7        0.0379
     16  N         92.3040   24.1060   14.5980 N.am    8  GLY8       -0.1954
     17  CA        90.8910   24.4060   14.5320 C.3     8  GLY8        0.1869
     18  C         90.3480   24.5580   13.1270 C.2     8  GLY8        0.2309
     19  O         89.5860   23.7210   12.6500 O.2     8  GLY8       -0.2863
     20  N         90.3740   21.9360   10.6140 N.3    11  LYS11      -0.1245
     21  CA        89.4380   20.8750   10.9540 C.3    11  LYS11       0.1561
     22  C         88.1090   21.2230   10.3190 C.2    11  LYS11       0.2260
     23  O         87.4540   20.3670    9.7160 O.2    11  LYS11      -0.2867
     24  CB        89.2720   20.7350   12.4590 C.3    11  LYS11       0.0271
     25  CG        90.1050   19.6180   13.0300 C.3    11  LYS11       0.0035
     26  CD        89.7960   19.4010   14.4920 C.3    11  LYS11       0.0206
     27  CE        90.5900   18.2390   15.0450 C.3    11  LYS11       0.1093
     28  NZ        90.8790   18.5110   16.4790 N.3    11  LYS11      -0.1314
     29  N        103.9990   31.5880   13.0550 N.3    33  GLU33      -0.1245
     30  CA       104.4830   30.4060   13.7660 C.3    33  GLU33       0.1567
     31  C        105.7010   29.8660   13.0390 C.2    33  GLU33       0.2260
     32  O        106.4270   29.0260   13.5620 O.2    33  GLU33      -0.2867
     33  CB       103.4130   29.3100   13.7830 C.3    33  GLU33       0.0388
     34  CG       102.0480   29.7390   14.3000 C.3    33  GLU33       0.1160
     35  CD       102.0750   30.0690   15.7750 C.2    33  GLU33       0.3649
     36  OE1      101.0620   30.5880   16.3040 O.co2  33  GLU33      -0.2457
     37  OE2      103.1240   29.8020   16.4000 O.co2  33  GLU33      -0.2457
     38  N        101.3940   25.8930   10.3730 N.3    45  ASP45      -0.1239
     39  CA       100.0330   26.1710    9.9710 C.3    45  ASP45       0.1674
     40  C         99.8860   25.9490    8.4680 C.2    45  ASP45       0.2266
     41  O         99.0420   25.1670    8.0320 O.2    45  ASP45      -0.2867
     42  CB        99.6800   27.5970   10.3760 C.3    45  ASP45       0.1410
     43  CG        99.7110   27.7900   11.8950 C.2    45  ASP45       0.3668
     44  OD1      100.0500   26.8150   12.6190 O.co2  45  ASP45      -0.2456
     45  OD2       99.3930   28.9130   12.3550 O.co2  45  ASP45      -0.2456
     46  N        107.4240   31.1140   20.4650 N.3   143  PHE143     -0.1241
     47  CA       106.2530   30.2710   20.6460 C.3   143  PHE143      0.1605
     48  C        106.6260   28.7930   20.7090 C.2   143  PHE143      0.2264
     49  O        106.2250   28.0850   21.6340 O.2   143  PHE143     -0.2867
     50  CB       105.2460   30.5060   19.5170 C.3   143  PHE143      0.0534
     51  CG       103.9060   29.8630   19.7550 C.ar  143  PHE143     -0.0203
     52  CD1      103.0090   30.4040   20.6710 C.ar  143  PHE143     -0.0042
     53  CD2      103.5500   28.6990   19.0790 C.ar  143  PHE143     -0.0042
     54  CE1      101.7740   29.7900   20.9120 C.ar  143  PHE143     -0.0003
     55  CE2      102.3250   28.0800   19.3110 C.ar  143  PHE143     -0.0003
     56  CZ       101.4340   28.6260   20.2290 C.ar  143  PHE143     -0.0000
     57  N        105.3710   26.4650   23.6430 N.3   147  TRP147     -0.1241
     58  CA       104.4050   25.3830   23.4900 C.3   147  TRP147      0.1605
     59  C        105.0480   24.0000   23.3920 C.2   147  TRP147      0.2264
     60  O        104.8500   23.1660   24.2710 O.2   147  TRP147     -0.2867
     61  CB       103.5200   25.6230   22.2660 C.3   147  TRP147      0.0550
     62  CG       102.3980   24.6380   22.1640 C.ar  147  TRP147      0.0003
     63  CD1      102.2070   23.6980   21.1880 C.ar  147  TRP147      0.0946
     64  CD2      101.3220   24.4780   23.0910 C.ar  147  TRP147      0.0152
     65  NE1      101.0750   22.9630   21.4540 N.ar  147  TRP147     -0.2442
     66  CE2      100.5120   23.4210   22.6170 C.ar  147  TRP147      0.0810
     67  CE3      100.9620   25.1260   24.2780 C.ar  147  TRP147      0.0012
     68  CZ2       99.3640   22.9980   23.2910 C.ar  147  TRP147      0.0191
     69  CZ3       99.8220   24.7060   24.9480 C.ar  147  TRP147      0.0001
     70  CH2       99.0360   23.6510   24.4520 C.ar  147  TRP147      0.0015
     71  N         87.9090   28.6050   13.5010 N.3   187  PRO187     -0.2102
     72  CA        88.0170   28.5300   14.9590 C.3   187  PRO187      0.1504
     73  C         89.4400   28.2370   15.4230 C.2   187  PRO187      0.2576
     74  O         89.6930   27.1710   15.9710 O.2   187  PRO187     -0.2718
     75  CB        87.0770   27.3860   15.3030 C.3   187  PRO187      0.0282
     76  CG        87.3460   26.4380   14.1740 C.3   187  PRO187      0.0208
     77  CD        87.2880   27.3760   12.9690 C.3   187  PRO187      0.0893
     78  N         90.3610   29.1710   15.1950 N.am  188  SER188     -0.1938
     79  CA        91.7640   29.0200   15.6100 C.3   188  SER188      0.2055
     80  C         92.1070   30.0840   16.6750 C.2   188  SER188      0.2643
     81  O         91.3380   31.0360   16.8620 O.2   188  SER188     -0.2714
     82  CB        92.7080   29.1730   14.3950 C.3   188  SER188      0.2130
     83  OG        92.8050   27.9830   13.6170 O.3   188  SER188     -0.2179
     84  N         93.2440   29.9310   17.3660 N.am  189  ASN189     -0.1971
     85  CA        93.6340   30.9060   18.3930 C.3   189  ASN189      0.1688
     86  C         93.4930   32.3180   17.8320 C.2   189  ASN189      0.2292
     87  O         94.1460   32.6880   16.8570 O.2   189  ASN189     -0.2864
     88  CB        95.0770   30.6920   18.8820 C.3   189  ASN189      0.1181
     89  CG        95.2780   29.3510   19.5970 C.2   189  ASN189      0.2629
     90  OD1       94.4330   28.9010   20.3800 O.2   189  ASN189     -0.2716
     91  ND2       96.4230   28.7160   19.3350 N.am  189  ASN189     -0.0877
     92  N         97.1420   33.1330   16.0080 N.3   193  SER193     -0.1217
     93  CA        96.8650   32.6030   14.6760 C.3   193  SER193      0.1889
     94  C         96.0230   33.5470   13.8240 C.2   193  SER193      0.2288
     95  O         96.4460   33.9800   12.7570 O.2   193  SER193     -0.2866
     96  CB        96.1670   31.2610   14.8150 C.3   193  SER193      0.2089
     97  OG        96.9810   30.3760   15.5590 O.3   193  SER193     -0.2183
     98  N         83.7860   31.3380   13.9100 N.3   214  VAL214     -0.1231
     99  CA        83.3390   30.2510   14.7660 C.3   214  VAL214      0.1692
    100  C         84.2000   30.2780   16.0290 C.2   214  VAL214      0.2593
    101  O         85.4240   30.1450   15.9500 O.2   214  VAL214     -0.2718
    102  CB        83.4960   28.8940   14.0540 C.3   214  VAL214      0.0266
    103  CG1       83.0030   27.7820   14.9530 C.3   214  VAL214      0.0020
    104  CG2       82.7310   28.9050   12.7390 C.3   214  VAL214      0.0020
    105  N         83.5590   30.4550   17.1870 N.am  215  SER215     -0.1939
    106  CA        84.2810   30.5150   18.4620 C.3   215  SER215      0.2040
    107  C         85.2070   29.3240   18.6810 C.2   215  SER215      0.2485
    108  O         84.7970   28.1620   18.5900 O.2   215  SER215     -0.2729
    109  CB        83.3070   30.6170   19.6400 C.3   215  SER215      0.2129
    110  OG        83.9980   30.6470   20.8820 O.3   215  SER215     -0.2179
    111  N         86.4860   29.6040   18.9520 N.am  216  PRO216     -0.2726
    112  CA        87.4580   28.5360   19.1820 C.3   216  PRO216      0.1402
    113  C         87.4830   28.1780   20.6560 C.2   216  PRO216      0.2269
    114  O         88.2480   27.3140   21.0840 O.2   216  PRO216     -0.2865
    115  CB        88.7630   29.1670   18.7160 C.3   216  PRO216      0.0296
    116  CG        88.5940   30.5840   19.1310 C.3   216  PRO216      0.0237
    117  CD        87.1610   30.8990   18.7540 C.3   216  PRO216      0.0939
    118  N         85.0780   26.8210   23.4980 N.3   218  ILE218     -0.1245
    119  CA        83.8200   26.2230   23.9090 C.3   218  ILE218      0.1561
    120  C         83.6850   26.3370   25.4200 C.2   218  ILE218      0.2260
    121  O         84.2020   25.4970   26.1660 O.2   218  ILE218     -0.2867
    122  CB        83.7590   24.7380   23.5270 C.3   218  ILE218      0.0252
    123  CG1       83.9270   24.5800   22.0170 C.3   218  ILE218      0.0019
    124  CG2       82.4350   24.1490   23.9660 C.3   218  ILE218      0.0019
    125  CD1       83.9870   23.1410   21.5680 C.3   218  ILE218      0.0001
    126  N         89.4810   26.8290   25.7110 N.3   222  PRO222     -0.2102
    127  CA        89.5710   26.3740   24.3210 C.3   222  PRO222      0.1504
    128  C         89.6770   24.8510   24.2580 C.2   222  PRO222      0.2576
    129  O         90.2220   24.2360   25.1730 O.2   222  PRO222     -0.2718
    130  CB        90.8400   27.0520   23.8340 C.3   222  PRO222      0.0282
    131  CG        91.7130   26.9930   25.0520 C.3   222  PRO222      0.0208
    132  CD        90.7580   27.4250   26.1450 C.3   222  PRO222      0.0893
    133  N         89.1630   24.2520   23.1820 N.am  223  VAL223     -0.1966
    134  CA        89.2050   22.8010   23.0020 C.3   223  VAL223      0.1727
    135  C         90.6400   22.3010   23.1770 C.2   223  VAL223      0.2617
    136  O         90.8650   21.1730   23.6220 O.2   223  VAL223     -0.2715
    137  CB        88.7090   22.3960   21.5970 C.3   223  VAL223      0.0290
    138  CG1       88.5840   20.8970   21.5010 C.3   223  VAL223      0.0023
    139  CG2       87.3790   23.0340   21.3130 C.3   223  VAL223      0.0023
    140  N         91.5980   23.1610   22.8250 N.am  224  SER224     -0.1936
    141  CA        93.0310   22.8690   22.9280 C.3   224  SER224      0.2055
    142  C         93.8590   24.1230   22.6330 C.2   224  SER224      0.2644
    143  O         93.3320   25.2350   22.6060 O.2   224  SER224     -0.2714
    144  CB        93.4110   21.7780   21.9440 C.3   224  SER224      0.2130
    145  OG        93.0900   22.1940   20.6320 O.3   224  SER224     -0.2179
    146  N         95.1570   23.9530   22.4090 N.am  225  GLY225     -0.1940
    147  CA        95.9940   25.1070   22.1270 C.3   225  GLY225      0.1999
    148  C         96.1730   26.0000   23.3470 C.2   225  GLY225      0.2481
    149  O         95.3280   26.0230   24.2410 O.2   225  GLY225     -0.2729
    150  N         97.2760   26.7610   23.4070 N.am  226  PRO226     -0.2715
    151  CA        97.5840   27.6660   24.5200 C.3   226  PRO226      0.1536
    152  C         96.6520   28.8690   24.6020 C.2   226  PRO226      0.2598
    153  O         96.9850   29.8880   25.2100 O.2   226  PRO226     -0.2715
    154  CB        99.0170   28.0810   24.2260 C.3   226  PRO226      0.0310
    155  CG        99.0240   28.1400   22.7280 C.3   226  PRO226      0.0237
    156  CD        98.3140   26.8530   22.3640 C.3   226  PRO226      0.0939
    157  N         95.4830   28.7480   23.9870 N.am  227  ALA227     -0.1978
    158  CA        94.5190   29.8320   23.9910 C.3   227  ALA227      0.1597
    159  C         94.0990   30.1820   25.4200 C.2   227  ALA227      0.2287
    160  O         93.6470   31.2960   25.6900 O.2   227  ALA227     -0.2864
    161  CB        93.3150   29.4400   23.1590 C.3   227  ALA227      0.0319
    162  N         80.0290   22.8250   17.6540 N.3   277  THR277     -0.1203
    163  CA        81.3230   23.1390   17.0610 C.3   277  THR277      0.1994
    164  C         82.3930   22.1090   17.3860 C.2   277  THR277      0.2617
    165  O         83.4480   22.0960   16.7530 O.2   277  THR277     -0.2717
    166  CB        81.8440   24.5350   17.5130 C.3   277  THR277      0.1784
    167  OG1       82.0800   24.5380   18.9270 O.3   277  THR277     -0.2211
    168  CG2       80.8380   25.6200   17.1630 C.3   277  THR277      0.0376
    169  N         82.1350   21.2420   18.3610 N.am  278  LEU278     -0.1979
    170  CA        83.1210   20.2290   18.7310 C.3   278  LEU278      0.1596
    171  C         83.2090   19.1650   17.6410 C.2   278  LEU278      0.2287
    172  O         82.4680   18.1740   17.6510 O.2   278  LEU278     -0.2864
    173  CB        82.7520   19.5720   20.0560 C.3   278  LEU278      0.0297
    174  CG        83.8830   19.4010   21.0730 C.3   278  LEU278      0.0022
    175  CD1       83.4080   18.4130   22.1350 C.3   278  LEU278      0.0001
    176  CD2       85.1520   18.8970   20.4090 C.3   278  LEU278      0.0001
    177  N         84.2290   16.1840   16.1960 N.3   279  THR279     -0.1218
    178  CA        84.6840   14.8370   16.5100 C.3   279  THR279      0.1862
    179  C         85.1990   14.1220   15.2690 C.2   279  THR279      0.2287
    180  O         86.3220   13.6620   15.2420 O.2   279  THR279     -0.2866
    181  CB        83.5450   13.9840   17.0960 C.3   279  THR279      0.1770
    182  OG1       83.1100   14.5540   18.3360 O.3   279  THR279     -0.2211
    183  CG2       84.0100   12.5380   17.3160 C.3   279  THR279      0.0375
@<TRIPOS>BOND
     1    41    40    2
     2    40    39    1
     3    23    22    2
     4    39    38    1
     5    39    42    1
     6    22    21    1
     7    42    43    1
     8     4     3    2
     9    20    21    1
    10    21    24    1
    11     1     2    1
    12     3     2    1
    13     3     5   am
    14    43    45   ar
    15    43    44   ar
    16     6     5    1
    17     6     7    1
    18    24    25    1
    19    19    18    2
    20   104   102    1
    21     8     7    2
    22    95    94    2
    23     7     9   am
    24    77    71    1
    25    77    76    1
    26    25    26    1
    27    31    32    2
    28    31    30    1
    29    29    30    1
    30    18    17    1
    31    12    11    2
    32     9    10    1
    33    71    72    1
    34    83    82    1
    35    30    33    1
    36    33    34    1
    37    94    93    1
    38    98    99    1
    39    11    10    1
    40    11    16   am
    41   102    99    1
    42   102   103    1
    43    10    13    1
    44    76    75    1
    45    34    35    1
    46    82    79    1
    47    26    27    1
    48    17    16    1
    49    93    96    1
    50    93    92    1
    51    99   100    1
    52    96    97    1
    53    72    75    1
    54    72    73    1
    55    27    28    1
    56    78    73   am
    57    78    79    1
    58   180   179    2
    59   179   178    1
    60    73    74    2
    61    13    14    1
    62    13    15    1
    63    79    80    1
    64    35    36   ar
    65    35    37   ar
    66   101   100    2
    67   100   105   am
    68   177   178    1
    69   178   181    1
    70    80    81    2
    71    80    84   am
    72   165   164    2
    73    87    86    2
    74   163   164    1
    75   163   166    1
    76   163   162    1
    77   181   183    1
    78   181   182    1
    79   168   166    1
    80   105   106    1
    81    84    85    1
    82   164   169   am
    83   166   167    1
    84   171   172    2
    85   171   170    1
    86    86    85    1
    87   169   170    1
    88    85    88    1
    89   106   107    1
    90   106   109    1
    91   108   107    2
    92   107   111   am
    93   115   116    1
    94   115   112    1
    95   170   173    1
    96   117   111    1
    97   117   116    1
    98    88    89    1
    99   111   112    1
   100    53    55   ar
   101    53    51   ar
   102   112   113    1
   103    55    56   ar
   104    91    89   am
   105    50    51    1
   106    50    47    1
   107    89    90    2
   108   109   110    1
   109    51    52   ar
   110   173   174    1
   111    56    54   ar
   112   176   174    1
   113    46    47    1
   114   145   144    1
   115    47    48    1
   116   113   114    2
   117    52    54   ar
   118    48    49    2
   119   174   175    1
   120    63    65   ar
   121    63    62   ar
   122   139   137    1
   123    65    66   ar
   124   138   137    1
   125   125   123    1
   126   137   134    1
   127   144   141    1
   128   123   122    1
   129   147   146    1
   130   147   148    1
   131    62    61    1
   132    62    64   ar
   133    61    58    1
   134   156   155    1
   135   156   150    1
   136   146   142   am
   137   143   142    2
   138    66    64   ar
   139    66    68   ar
   140   142   141    1
   141   155   154    1
   142   140   141    1
   143   140   135   am
   144   134   135    1
   145   134   133    1
   146    64    67   ar
   147   161   158    1
   148   135   136    2
   149   133   128   am
   150    68    70   ar
   151   148   150   am
   152   148   149    2
   153    59    58    1
   154    59    60    2
   155   150   151    1
   156    58    57    1
   157   118   119    1
   158   122   119    1
   159   122   124    1
   160   130   127    1
   161   130   131    1
   162   119   120    1
   163   157   158    1
   164   157   152   am
   165   158   159    1
   166   154   151    1
   167   128   127    1
   168   128   129    2
   169    67    69   ar
   170   127   126    1
   171    70    69   ar
   172   151   152    1
   173   152   153    2
   174   131   132    1
   175   120   121    2
   176   159   160    2
   177   126   132    1
