@<TRIPOS>MOLECULE
tmp/3c3iC00.pdb
 101 97 0 0 0
SMALL
GASTEIGER

@<TRIPOS>ATOM
      1  N        -21.4400   36.8970  -12.2640 N.3    59  ILE59      -0.1245
      2  CA       -22.8200   37.1860  -12.6460 C.3    59  ILE59       0.1561
      3  C        -23.5370   37.5510  -11.3490 C.2    59  ILE59       0.2260
      4  O        -23.7830   36.6910  -10.5040 O.2    59  ILE59      -0.2867
      5  CB       -23.5240   35.9580  -13.2590 C.3    59  ILE59       0.0252
      6  CG1      -22.7480   35.4540  -14.4780 C.3    59  ILE59       0.0019
      7  CG2      -24.9360   36.3260  -13.6640 C.3    59  ILE59       0.0019
      8  CD1      -22.8530   36.3450  -15.6800 C.3    59  ILE59       0.0001
      9  N        -27.9040   31.7620   -9.0050 N.3    74  LEU74      -0.1231
     10  CA       -26.9910   30.6610   -8.6570 C.3    74  LEU74       0.1693
     11  C        -25.6790   30.6440   -9.4500 C.2    74  LEU74       0.2592
     12  O        -25.5870   31.2370  -10.5200 O.2    74  LEU74      -0.2718
     13  CB       -27.7050   29.3250   -8.8370 C.3    74  LEU74       0.0284
     14  CG       -29.1010   29.2180   -8.2120 C.3    74  LEU74       0.0019
     15  CD1      -29.6430   27.8520   -8.5030 C.3    74  LEU74       0.0001
     16  CD2      -29.0680   29.4650   -6.7240 C.3    74  LEU74       0.0001
     17  N        -24.6690   29.9560   -8.9210 N.am   75  ALA75      -0.1966
     18  CA       -23.3580   29.8840   -9.5720 C.3    75  ALA75       0.1728
     19  C        -22.8520   31.2980   -9.7910 C.2    75  ALA75       0.2617
     20  O        -22.6180   32.0350   -8.8330 O.2    75  ALA75      -0.2715
     21  CB       -23.4640   29.1640  -10.9000 C.3    75  ALA75       0.0334
     22  N        -22.6660   31.6650  -11.0540 N.am   76  GLY76      -0.1940
     23  CA       -22.2270   33.0090  -11.3760 C.3    76  GLY76       0.2014
     24  C        -20.7540   33.2750  -11.5940 C.2    76  GLY76       0.2639
     25  O        -20.4070   34.3560  -12.0680 O.2    76  GLY76      -0.2714
     26  N        -19.8790   32.3250  -11.2710 N.am   77  VAL77      -0.1963
     27  CA       -18.4430   32.5580  -11.4430 C.3    77  VAL77       0.1727
     28  C        -17.9660   32.2980  -12.8740 C.2    77  VAL77       0.2616
     29  O        -17.9570   31.1600  -13.3420 O.2    77  VAL77      -0.2715
     30  CB       -17.6030   31.6990  -10.4570 C.3    77  VAL77       0.0290
     31  CG1      -16.1330   32.0810  -10.5620 C.3    77  VAL77       0.0023
     32  CG2      -18.0960   31.9030   -9.0200 C.3    77  VAL77       0.0023
     33  N        -17.5600   33.3700  -13.5520 N.am   78  ILE78      -0.1963
     34  CA       -17.0910   33.3100  -14.9350 C.3    78  ILE78       0.1727
     35  C        -15.5710   33.4520  -15.0560 C.2    78  ILE78       0.2616
     36  O        -15.0280   34.5610  -14.9600 O.2    78  ILE78      -0.2715
     37  CB       -17.7420   34.4230  -15.7770 C.3    78  ILE78       0.0290
     38  CG1      -19.2590   34.4130  -15.5670 C.3    78  ILE78       0.0022
     39  CG2      -17.3890   34.2350  -17.2500 C.3    78  ILE78       0.0023
     40  CD1      -19.9210   33.0960  -15.8740 C.3    78  ILE78       0.0001
     41  N        -14.8930   32.3340  -15.3010 N.am   79  ASP79      -0.1971
     42  CA       -13.4350   32.3370  -15.4070 C.3    79  ASP79       0.1709
     43  C        -12.8650   33.0160  -16.6370 C.2    79  ASP79       0.2293
     44  O        -13.4450   32.9540  -17.7190 O.2    79  ASP79      -0.2864
     45  CB       -12.9020   30.9140  -15.3140 C.3    79  ASP79       0.1436
     46  CG       -13.4500   30.1890  -14.1210 C.2    79  ASP79       0.3671
     47  OD1      -14.6110   29.7250  -14.2000 O.co2  79  ASP79      -0.2456
     48  OD2      -12.7350   30.1100  -13.0990 O.co2  79  ASP79      -0.2456
     49  N        -10.3380   32.2840  -18.5120 N.3    81  ASP81      -0.1225
     50  CA       -10.0410   31.4060  -19.6320 C.3    81  ASP81       0.1805
     51  C        -11.2980   30.8080  -20.2560 C.2    81  ASP81       0.2597
     52  O        -11.2070   30.0140  -21.1930 O.2    81  ASP81      -0.2718
     53  CB        -9.1010   30.2720  -19.1950 C.3    81  ASP81       0.1424
     54  CG        -9.6590   29.4650  -18.0350 C.2    81  ASP81       0.3668
     55  OD1      -10.8900   29.5220  -17.8320 O.co2  81  ASP81      -0.2456
     56  OD2       -8.8780   28.7710  -17.3350 O.co2  81  ASP81      -0.2456
     57  N        -12.4700   31.1800  -19.7490 N.am   82  TYR82      -0.1976
     58  CA       -13.7080   30.6350  -20.2950 C.3    82  TYR82       0.1639
     59  C        -13.9740   31.1280  -21.6990 C.2    82  TYR82       0.2290
     60  O        -13.9930   32.3350  -21.9430 O.2    82  TYR82      -0.2864
     61  CB       -14.9050   30.9980  -19.4370 C.3    82  TYR82       0.0560
     62  CG       -16.1960   30.3650  -19.9260 C.ar   82  TYR82      -0.0198
     63  CD1      -16.3330   28.9780  -19.9860 C.ar   82  TYR82      -0.0009
     64  CD2      -17.2970   31.1520  -20.2700 C.ar   82  TYR82      -0.0009
     65  CE1      -17.5300   28.3920  -20.3620 C.ar   82  TYR82       0.0417
     66  CE2      -18.5010   30.5720  -20.6530 C.ar   82  TYR82       0.0417
     67  CZ       -18.6120   29.1940  -20.6920 C.ar   82  TYR82       0.1957
     68  OH       -19.8100   28.6120  -21.0400 O.3    82  TYR82      -0.2866
     69  N        -20.3080   30.1010  -24.1230 N.3    85  GLU85      -0.1231
     70  CA       -21.3640   31.0990  -24.0360 C.3    85  GLU85       0.1699
     71  C        -21.6110   31.3710  -22.5660 C.2    85  GLU85       0.2592
     72  O        -21.6340   30.4450  -21.7580 O.2    85  GLU85      -0.2718
     73  CB       -22.6660   30.5840  -24.6540 C.3    85  GLU85       0.0402
     74  CG       -23.8020   31.6110  -24.6160 C.3    85  GLU85       0.1161
     75  CD       -25.1710   31.0150  -24.9270 C.2    85  GLU85       0.3649
     76  OE1      -26.1270   31.7970  -25.1370 O.co2  85  GLU85      -0.2457
     77  OE2      -25.3000   29.7720  -24.9520 O.co2  85  GLU85      -0.2457
     78  N        -21.7890   32.6390  -22.2170 N.am   86  VAL86      -0.1966
     79  CA       -22.0660   33.0100  -20.8340 C.3    86  VAL86       0.1727
     80  C        -23.5280   32.6780  -20.5390 C.2    86  VAL86       0.2616
     81  O        -24.4280   33.2050  -21.1900 O.2    86  VAL86      -0.2715
     82  CB       -21.8540   34.5190  -20.6050 C.3    86  VAL86       0.0290
     83  CG1      -22.2490   34.8900  -19.1890 C.3    86  VAL86       0.0023
     84  CG2      -20.4080   34.8830  -20.8680 C.3    86  VAL86       0.0023
     85  N        -23.7650   31.7970  -19.5710 N.am   87  LYS87      -0.1977
     86  CA       -25.1330   31.4270  -19.2190 C.3    87  LYS87       0.1596
     87  C        -25.5010   31.8290  -17.7930 C.2    87  LYS87       0.2287
     88  O        -24.7360   31.6110  -16.8570 O.2    87  LYS87      -0.2864
     89  CB       -25.3540   29.9250  -19.4420 C.3    87  LYS87       0.0298
     90  CG       -25.5170   29.5670  -20.9170 C.3    87  LYS87       0.0038
     91  CD       -25.9250   28.1170  -21.1050 C.3    87  LYS87       0.0206
     92  CE       -26.2350   27.7990  -22.5650 C.3    87  LYS87       0.1093
     93  NZ       -26.5750   26.3570  -22.7820 N.3    87  LYS87      -0.1314
     94  N        -27.7120   31.4430  -14.4910 N.3    89  ILE89      -0.1245
     95  CA       -28.5290   30.4730  -13.7750 C.3    89  ILE89       0.1561
     96  C        -29.4170   31.1610  -12.7410 C.2    89  ILE89       0.2260
     97  O        -28.9490   31.5830  -11.6800 O.2    89  ILE89      -0.2867
     98  CB       -27.6490   29.4160  -13.0890 C.3    89  ILE89       0.0252
     99  CG1      -26.8540   28.6720  -14.1530 C.3    89  ILE89       0.0019
    100  CG2      -28.5090   28.4400  -12.2900 C.3    89  ILE89       0.0019
    101  CD1      -26.0080   27.5740  -13.6050 C.3    89  ILE89       0.0001
@<TRIPOS>BOND
     1    76    75   ar
     2    77    75   ar
     3    75    74    1
     4    73    74    1
     5    73    70    1
     6    69    70    1
     7    70    71    1
     8    93    92    1
     9    71    78   am
    10    71    72    2
    11    92    91    1
    12    78    79    1
    13    60    59    2
    14    59    58    1
    15    52    51    2
    16    81    80    2
    17    91    90    1
    18    68    67    1
    19    90    89    1
    20    84    82    1
    21    79    82    1
    22    79    80    1
    23    67    66   ar
    24    67    65   ar
    25    66    64   ar
    26    82    83    1
    27    80    85   am
    28    65    63   ar
    29    58    57    1
    30    58    61    1
    31    64    62   ar
    32    51    57   am
    33    51    50    1
    34    63    62   ar
    35    62    61    1
    36    50    53    1
    37    50    49    1
    38    85    86    1
    39    89    86    1
    40    86    87    1
    41    53    54    1
    42    54    55   ar
    43    54    56   ar
    44    87    88    2
    45    44    43    2
    46    39    37    1
    47    43    42    1
    48    40    38    1
    49    37    38    1
    50    37    34    1
    51     8     6    1
    52    42    45    1
    53    42    41    1
    54    45    46    1
    55    41    35   am
    56    35    36    2
    57    35    34    1
    58    34    33    1
    59    94    95    1
    60     6     5    1
    61    47    46   ar
    62    99   101    1
    63    99    98    1
    64    46    48   ar
    65    95    98    1
    66    95    96    1
    67     7     5    1
    68    33    28   am
    69    29    28    2
    70     5     2    1
    71    98   100    1
    72    28    27    1
    73    96    97    2
    74     2     1    1
    75     2     3    1
    76    25    24    2
    77    24    23    1
    78    24    26   am
    79    27    26    1
    80    27    30    1
    81    23    22    1
    82     3     4    2
    83    22    19   am
    84    21    18    1
    85    31    30    1
    86    12    11    2
    87    30    32    1
    88    19    18    1
    89    19    20    2
    90    18    17    1
    91    11    17   am
    92    11    10    1
    93     9    10    1
    94    13    10    1
    95    13    14    1
    96    15    14    1
    97    14    16    1
