@<TRIPOS>MOLECULE
tmp/3c3pB01.pdb
 85 81 0 0 0
SMALL
GASTEIGER

@<TRIPOS>ATOM
      1  N         12.9670  -60.5480    1.5460 N.3     1  PRO1       -0.2102
      2  CA        13.4770  -59.3370    2.2050 C.3     1  PRO1        0.1504
      3  C         14.5730  -59.6310    3.1940 C.2     1  PRO1        0.2576
      4  O         14.5400  -60.6330    3.9170 O.2     1  PRO1       -0.2718
      5  CB        12.2510  -58.7970    2.9450 C.3     1  PRO1        0.0282
      6  CG        11.3420  -59.9690    3.0890 C.3     1  PRO1        0.0208
      7  CD        11.5460  -60.7840    1.8580 C.3     1  PRO1        0.0893
      8  N         15.5820  -58.7910    3.1720 N.am    2  ILE2       -0.1966
      9  CA        16.6870  -58.9570    4.1150 C.3     2  ILE2        0.1727
     10  C         16.3410  -58.0950    5.3340 C.2     2  ILE2        0.2616
     11  O         16.3790  -58.5610    6.4800 O.2     2  ILE2       -0.2715
     12  CB        18.0190  -58.7250    3.4290 C.3     2  ILE2        0.0290
     13  CG1       18.3090  -59.9780    2.5920 C.3     2  ILE2        0.0022
     14  CG2       19.1390  -58.4720    4.4460 C.3     2  ILE2        0.0023
     15  CD1       19.3700  -59.7800    1.5120 C.3     2  ILE2        0.0001
     16  N         15.9930  -56.8440    5.0630 N.am    3  VAL3       -0.1977
     17  CA        15.5500  -55.9270    6.1210 C.3     3  VAL3        0.1596
     18  C         14.2200  -55.3310    5.6920 C.2     3  VAL3        0.2287
     19  O         13.9430  -55.1650    4.5230 O.2     3  VAL3       -0.2864
     20  CB        16.5100  -54.7520    6.4450 C.3     3  VAL3        0.0276
     21  CG1       17.9650  -55.2460    6.6500 C.3     3  VAL3        0.0022
     22  CG2       16.4500  -53.6860    5.3820 C.3     3  VAL3        0.0022
     23  N         12.4710  -49.8300    6.8090 N.3     7  ILE7       -0.1231
     24  CA        13.7920  -49.4850    7.3510 C.3     7  ILE7        0.1692
     25  C         14.6830  -49.0510    6.2040 C.2     7  ILE7        0.2592
     26  O         15.3860  -48.0490    6.2800 O.2     7  ILE7       -0.2718
     27  CB        14.4480  -50.6620    8.1160 C.3     7  ILE7        0.0266
     28  CG1       13.6360  -50.9640    9.3690 C.3     7  ILE7        0.0019
     29  CG2       15.8910  -50.3440    8.4990 C.3     7  ILE7        0.0020
     30  CD1       13.6010  -49.8520   10.3580 C.3     7  ILE7        0.0001
     31  N         14.6390  -49.8080    5.1200 N.am    8  GLY8       -0.1957
     32  CA        15.4940  -49.4970    3.9390 C.3     8  GLY8        0.1869
     33  C         15.1990  -48.1380    3.3220 C.2     8  GLY8        0.2309
     34  O         16.1190  -47.3940    2.9120 O.2     8  GLY8       -0.2863
     35  N         16.5090  -45.4090    5.6670 N.3    11  LEU11      -0.1245
     36  CA        17.9680  -45.2720    5.5640 C.3    11  LEU11       0.1561
     37  C         18.3640  -44.5290    4.2930 C.2    11  LEU11       0.2260
     38  O         19.3110  -43.7400    4.2760 O.2    11  LEU11      -0.2867
     39  CB        18.6660  -46.6070    5.6680 C.3    11  LEU11       0.0270
     40  CG        18.5200  -47.3460    7.0070 C.3    11  LEU11       0.0019
     41  CD1       19.3690  -48.5480    7.0000 C.3    11  LEU11       0.0001
     42  CD2       18.9360  -46.3950    8.1250 C.3    11  LEU11       0.0001
     43  N         25.2410  -51.4180   -4.4380 N.3    37  ASP37      -0.1239
     44  CA        24.2640  -50.3660   -4.0960 C.3    37  ASP37       0.1674
     45  C         25.0200  -49.3670   -3.2300 C.2    37  ASP37       0.2266
     46  O         26.1020  -49.6300   -2.6940 O.2    37  ASP37      -0.2867
     47  CB        22.8910  -50.8520   -3.5040 C.3    37  ASP37       0.1410
     48  CG        22.8760  -51.1600   -1.9520 C.2    37  ASP37       0.3668
     49  OD1       23.8920  -51.1600   -1.2570 O.co2  37  ASP37      -0.2456
     50  OD2       21.7420  -51.3290   -1.4070 O.co2  37  ASP37      -0.2456
     51  N         24.3150  -48.0160   -0.1930 N.3    39  GLN39      -0.1245
     52  CA        24.5160  -48.2720    1.2440 C.3    39  GLN39       0.1566
     53  C         25.7380  -49.1690    1.4410 C.2    39  GLN39       0.2260
     54  O         26.4980  -49.0080    2.3810 O.2    39  GLN39      -0.2867
     55  CB        23.2700  -48.9030    1.8970 C.3    39  GLN39       0.0367
     56  CG        22.0180  -47.9710    1.8850 C.3    39  GLN39       0.0905
     57  CD        22.1160  -46.7160    2.8000 C.2    39  GLN39       0.2608
     58  OE1       23.1140  -46.4890    3.4930 O.2    39  GLN39      -0.2717
     59  NE2       21.0620  -45.9230    2.8080 N.am   39  GLN39      -0.0878
     60  N         23.4990  -57.2230    7.5980 N.3   174  PRO174     -0.2102
     61  CA        22.4060  -57.1210    6.6770 C.3   174  PRO174      0.1504
     62  C         22.2940  -55.7660    6.0310 C.2   174  PRO174      0.2576
     63  O         21.3560  -55.0360    6.2670 O.2   174  PRO174     -0.2718
     64  CB        21.1800  -57.4560    7.5420 C.3   174  PRO174      0.0282
     65  CG        21.5440  -57.0780    8.8960 C.3   174  PRO174      0.0208
     66  CD        23.0650  -57.0270    8.9930 C.3   174  PRO174      0.0893
     67  N         23.2950  -55.5110    5.2020 N.am  175  VAL175     -0.1966
     68  CA        23.3690  -54.2730    4.3960 C.3   175  VAL175      0.1727
     69  C         23.2430  -54.6860    2.9310 C.2   175  VAL175      0.2617
     70  O         23.7910  -55.6750    2.4740 O.2   175  VAL175     -0.2715
     71  CB        24.6260  -53.4090    4.6720 C.3   175  VAL175      0.0290
     72  CG1       25.8820  -54.1860    4.4210 C.3   175  VAL175      0.0023
     73  CG2       24.6030  -52.1300    3.8210 C.3   175  VAL175      0.0023
     74  N         22.4380  -53.9270    2.2050 N.am  176  GLY176     -0.1940
     75  CA        22.1940  -54.2270    0.7850 C.3   176  GLY176      0.2014
     76  C         21.7990  -55.6850    0.6590 C.2   176  GLY176      0.2638
     77  O         20.8590  -56.1310    1.2860 O.2   176  GLY176     -0.2714
     78  N         22.5260  -56.4600   -0.1340 N.am  177  ASN177     -0.1972
     79  CA        22.2140  -57.9070   -0.2840 C.3   177  ASN177      0.1688
     80  C         22.9870  -58.8350    0.6390 C.2   177  ASN177      0.2292
     81  O         23.1190  -60.0310    0.3800 O.2   177  ASN177     -0.2864
     82  CB        22.2680  -58.3430   -1.7370 C.3   177  ASN177      0.1181
     83  CG        20.9730  -57.9830   -2.4570 C.2   177  ASN177      0.2629
     84  OD1       19.8890  -58.4560   -2.0750 O.2   177  ASN177     -0.2716
     85  ND2       21.0750  -57.1950   -3.5000 N.am  177  ASN177     -0.0877
@<TRIPOS>BOND
     1    43    44    1
     2    44    47    1
     3    44    45    1
     4    47    48    1
     5    85    83   am
     6    45    46    2
     7    83    84    2
     8    83    82    1
     9    48    50   ar
    10    48    49   ar
    11    82    79    1
    12    79    78    1
    13    79    80    1
    14    51    52    1
    15    78    76   am
    16    81    80    2
    17    76    75    1
    18    76    77    2
    19    75    74    1
    20    52    53    1
    21    52    55    1
    22    53    54    2
    23    15    13    1
    24     1     7    1
    25     1     2    1
    26     7     6    1
    27    56    55    1
    28    56    57    1
    29    74    69   am
    30     2     5    1
    31     2     3    1
    32    70    69    2
    33    13    12    1
    34    57    59   am
    35    57    58    2
    36    34    33    2
    37    69    68    1
    38     5     6    1
    39     8     3   am
    40     8     9    1
    41     3     4    2
    42    33    32    1
    43    12     9    1
    44    12    14    1
    45    73    71    1
    46    32    31    1
    47     9    10    1
    48    38    37    2
    49    37    36    1
    50    68    71    1
    51    68    67    1
    52    72    71    1
    53    19    18    2
    54    16    10   am
    55    16    17    1
    56    31    25   am
    57    67    62   am
    58    10    11    2
    59    22    20    1
    60    36    35    1
    61    36    39    1
    62    39    40    1
    63    18    17    1
    64    62    63    2
    65    62    61    1
    66    17    20    1
    67    25    26    2
    68    25    24    1
    69    20    21    1
    70    61    64    1
    71    61    60    1
    72    23    24    1
    73    41    40    1
    74    40    42    1
    75    24    27    1
    76    64    65    1
    77    60    66    1
    78    27    29    1
    79    27    28    1
    80    65    66    1
    81    28    30    1
