@<TRIPOS>MOLECULE
tmp/3c3uA01.pdb
 155 153 0 0 0
SMALL
GASTEIGER

@<TRIPOS>ATOM
      1  N          4.0900   -0.6080   24.6810 N.3    21  TYR21      -0.1241
      2  CA         3.2800   -1.5300   23.8940 C.3    21  TYR21       0.1605
      3  C          2.5430   -2.5210   24.7890 C.2    21  TYR21       0.2264
      4  O          3.1260   -3.0890   25.7120 O.2    21  TYR21      -0.2867
      5  CB         4.1520   -2.2810   22.8850 C.3    21  TYR21       0.0534
      6  CG         3.4000   -3.3100   22.0720 C.ar   21  TYR21      -0.0201
      7  CD1        2.7280   -2.9500   20.9110 C.ar   21  TYR21      -0.0009
      8  CD2        3.3610   -4.6410   22.4650 C.ar   21  TYR21      -0.0009
      9  CE1        2.0380   -3.8870   20.1650 C.ar   21  TYR21       0.0417
     10  CE2        2.6750   -5.5850   21.7250 C.ar   21  TYR21       0.0417
     11  CZ         2.0150   -5.2030   20.5760 C.ar   21  TYR21       0.1957
     12  OH         1.3300   -6.1380   19.8350 O.3    21  TYR21      -0.2866
     13  N          2.4420    2.3310   15.2830 N.3    51  LEU51      -0.1231
     14  CA         1.8610    0.9690   15.3420 C.3    51  LEU51       0.1693
     15  C          1.0520    0.6690   16.6440 C.2    51  LEU51       0.2592
     16  O          0.0810   -0.0720   16.6010 O.2    51  LEU51      -0.2718
     17  CB         2.9310   -0.1060   15.2120 C.3    51  LEU51       0.0284
     18  CG         2.4290   -1.5760   15.0670 C.3    51  LEU51       0.0019
     19  CD1        1.5570   -1.7680   13.7970 C.3    51  LEU51       0.0001
     20  CD2        3.6000   -2.5520   15.0550 C.3    51  LEU51       0.0001
     21  N          1.5020    1.2150   17.7790 N.am   52  TYR52      -0.1976
     22  CA         0.9860    0.8450   19.1040 C.3    52  TYR52       0.1639
     23  C         -0.4040    1.3490   19.4210 C.2    52  TYR52       0.2290
     24  O         -1.0090    0.9010   20.4230 O.2    52  TYR52      -0.2864
     25  CB         1.9560    1.2810   20.2220 C.3    52  TYR52       0.0560
     26  CG         3.3610    0.7270   20.0770 C.ar   52  TYR52      -0.0198
     27  CD1        3.6620   -0.2430   19.1100 C.ar   52  TYR52      -0.0009
     28  CD2        4.3800    1.1520   20.9400 C.ar   52  TYR52      -0.0009
     29  CE1        4.9660   -0.7660   18.9910 C.ar   52  TYR52       0.0417
     30  CE2        5.6990    0.6590   20.8160 C.ar   52  TYR52       0.0417
     31  CZ         5.9830   -0.3000   19.8560 C.ar   52  TYR52       0.1957
     32  OH         7.2810   -0.7640   19.7440 O.3    52  TYR52      -0.2866
     33  N          5.9490    3.6970   10.8270 N.3    83  TRP83      -0.1241
     34  CA         5.4590    2.3720   10.4000 C.3    83  TRP83       0.1605
     35  C          5.6550    2.0780    8.8710 C.2    83  TRP83       0.2264
     36  O          5.8930    2.9890    8.0590 O.2    83  TRP83      -0.2867
     37  CB         3.9920    2.1190   10.8790 C.3    83  TRP83       0.0550
     38  CG         3.5710    0.7030   10.5660 C.ar   83  TRP83       0.0003
     39  CD1        2.5680    0.3000    9.6970 C.ar   83  TRP83       0.0946
     40  CD2        4.2220   -0.5070   11.0180 C.ar   83  TRP83       0.0152
     41  NE1        2.5580   -1.0980    9.6220 N.ar   83  TRP83      -0.2442
     42  CE2        3.5670   -1.5970   10.4110 C.ar   83  TRP83       0.0810
     43  CE3        5.3160   -0.7690   11.8880 C.ar   83  TRP83       0.0012
     44  CZ2        3.9550   -2.9330   10.6510 C.ar   83  TRP83       0.0191
     45  CZ3        5.6920   -2.0920   12.1210 C.ar   83  TRP83       0.0001
     46  CH2        5.0120   -3.1520   11.5050 C.ar   83  TRP83       0.0015
     47  N         10.6840    1.7340   11.8780 N.3   114  HIS114     -0.1226
     48  CA        10.2460    0.6340   12.7500 C.3   114  HIS114      0.1752
     49  C         10.6950   -0.7870   12.2790 C.2   114  HIS114      0.2596
     50  O         11.0930   -1.6380   13.0910 O.2   114  HIS114     -0.2718
     51  CB         8.7180    0.6840   12.9060 C.3   114  HIS114      0.0759
     52  CG         8.2090   -0.0100   14.1420 C.ar  114  HIS114      0.0818
     53  ND1        7.0490    0.3690   14.7820 N.ar  114  HIS114     -0.2268
     54  CD2        8.6920   -1.0730   14.8360 C.ar  114  HIS114      0.1154
     55  CE1        6.8450   -0.4200   15.8300 C.ar  114  HIS114      0.1986
     56  NE2        7.8270   -1.3110   15.8780 N.ar  114  HIS114     -0.2212
     57  N         10.7100   -1.0060   10.9680 N.am  115  PHE115     -0.1976
     58  CA        10.9570   -2.3540   10.4340 C.3   115  PHE115      0.1639
     59  C         11.2530   -2.1850    8.9600 C.2   115  PHE115      0.2290
     60  O         10.5840   -1.3840    8.3020 O.2   115  PHE115     -0.2864
     61  CB         9.6850   -3.2000   10.6090 C.3   115  PHE115      0.0560
     62  CG         9.8610   -4.6480   10.2720 C.ar  115  PHE115     -0.0200
     63  CD1       10.5390   -5.5050   11.1290 C.ar  115  PHE115     -0.0042
     64  CD2        9.2980   -5.1670    9.1000 C.ar  115  PHE115     -0.0042
     65  CE1       10.7170   -6.8820   10.7990 C.ar  115  PHE115     -0.0003
     66  CE2        9.4510   -6.5320    8.7800 C.ar  115  PHE115     -0.0003
     67  CZ        10.1660   -7.3870    9.6320 C.ar  115  PHE115     -0.0000
     68  N         -1.5000   -3.1720    8.4510 N.3   126  ILE126     -0.1245
     69  CA        -1.1160   -4.4180    7.7760 C.3   126  ILE126      0.1561
     70  C         -2.1020   -4.7280    6.6280 C.2   126  ILE126      0.2260
     71  O         -2.9930   -5.5560    6.8160 O.2   126  ILE126     -0.2867
     72  CB        -1.0170   -5.6080    8.7620 C.3   126  ILE126      0.0252
     73  CG1       -0.2150   -5.1840   10.0120 C.3   126  ILE126      0.0019
     74  CG2       -0.4150   -6.8640    8.0450 C.3   126  ILE126      0.0019
     75  CD1        0.2760   -6.3000   10.9020 C.3   126  ILE126      0.0001
     76  N         15.1200   -3.1660   14.0650 N.3   164  ASN164     -0.1240
     77  CA        15.0460   -4.4590   13.3740 C.3   164  ASN164      0.1653
     78  C         15.8570   -4.4660   12.0820 C.2   164  ASN164      0.2266
     79  O         15.4430   -5.0510   11.0800 O.2   164  ASN164     -0.2867
     80  CB        13.5720   -4.7960   13.0820 C.3   164  ASN164      0.1155
     81  CG        12.7380   -4.9740   14.3610 C.2   164  ASN164      0.2627
     82  OD1       13.0300   -5.8390   15.1860 O.2   164  ASN164     -0.2716
     83  ND2       11.6710   -4.1810   14.5010 N.am  164  ASN164     -0.0877
     84  N         17.2780   -0.4720   17.4110 N.3   187  GLN187     -0.1245
     85  CA        16.4280   -1.1170   18.4190 C.3   187  GLN187      0.1566
     86  C         16.0100   -2.5380   17.9710 C.2   187  GLN187      0.2260
     87  O         15.3080   -2.7040   16.9520 O.2   187  GLN187     -0.2867
     88  CB        15.2040   -0.2710   18.7240 C.3   187  GLN187      0.0367
     89  CG        14.4120   -0.7900   19.9770 C.3   187  GLN187      0.0905
     90  CD        13.1250   -0.0380   20.2080 C.2   187  GLN187      0.2608
     91  OE1       13.1360    1.1870   20.4300 O.2   187  GLN187     -0.2717
     92  NE2       12.0180   -0.7540   20.2040 N.am  187  GLN187     -0.0878
     93  N         14.8700   -4.6470   23.0760 N.3   213  TYR213     -0.1241
     94  CA        13.4450   -4.8150   23.3380 C.3   213  TYR213      0.1605
     95  C         13.0710   -6.2900   23.4300 C.2   213  TYR213      0.2264
     96  O         13.7740   -7.1530   22.9040 O.2   213  TYR213     -0.2867
     97  CB        12.6160   -4.1290   22.2500 C.3   213  TYR213      0.0534
     98  CG        12.4940   -4.9320   20.9750 C.ar  213  TYR213     -0.0201
     99  CD1       12.0210   -6.2370   20.9960 C.ar  213  TYR213     -0.0009
    100  CD2       12.8530   -4.3850   19.7500 C.ar  213  TYR213     -0.0009
    101  CE1       11.9080   -6.9750   19.8330 C.ar  213  TYR213      0.0417
    102  CE2       12.7430   -5.1150   18.5820 C.ar  213  TYR213      0.0417
    103  CZ        12.2710   -6.4090   18.6290 C.ar  213  TYR213      0.1957
    104  OH        12.1600   -7.1410   17.4690 O.3   213  TYR213     -0.2866
    105  N          6.1870   -9.9480   25.4260 N.3   219  HIS219     -0.1241
    106  CA         4.8090  -10.0150   25.8980 C.3   219  HIS219      0.1621
    107  C          4.2120  -11.3980   25.6610 C.2   219  HIS219      0.2264
    108  O          3.2300  -11.7780   26.2980 O.2   219  HIS219     -0.2867
    109  CB         3.9550   -8.9490   25.2100 C.3   219  HIS219      0.0745
    110  CG         4.2620   -8.7740   23.7550 C.ar  219  HIS219      0.0817
    111  ND1        3.9590   -9.7300   22.8100 N.ar  219  HIS219     -0.2268
    112  CD2        4.8470   -7.7530   23.0840 C.ar  219  HIS219      0.1154
    113  CE1        4.3430   -9.3060   21.6190 C.ar  219  HIS219      0.1986
    114  NE2        4.8850   -8.1090   21.7580 N.ar  219  HIS219     -0.2212
    115  N          2.0410  -13.6580   17.3850 N.3   224  TRP224     -0.1241
    116  CA         3.3810  -13.0660   17.2410 C.3   224  TRP224      0.1605
    117  C          4.5290  -13.8980   17.8310 C.2   224  TRP224      0.2264
    118  O          5.6240  -13.9740   17.2450 O.2   224  TRP224     -0.2867
    119  CB         3.3750  -11.6980   17.9170 C.3   224  TRP224      0.0550
    120  CG         2.3640  -10.8000   17.3180 C.ar  224  TRP224      0.0003
    121  CD1        1.1290  -10.4680   17.8260 C.ar  224  TRP224      0.0946
    122  CD2        2.4680  -10.1520   16.0550 C.ar  224  TRP224      0.0152
    123  NE1        0.4770   -9.6180   16.9540 N.ar  224  TRP224     -0.2442
    124  CE2        1.2770   -9.4150   15.8610 C.ar  224  TRP224      0.0810
    125  CE3        3.4700  -10.1090   15.0640 C.ar  224  TRP224      0.0012
    126  CZ2        1.0570   -8.6320   14.7130 C.ar  224  TRP224      0.0191
    127  CZ3        3.2540   -9.3340   13.9290 C.ar  224  TRP224      0.0001
    128  CH2        2.0520   -8.6100   13.7650 C.ar  224  TRP224      0.0015
    129  N         10.2190  -12.7570   18.7440 N.3   303  LEU303     -0.1245
    130  CA         9.4850  -11.9710   17.7550 C.3   303  LEU303      0.1561
    131  C         10.1010  -12.1170   16.3620 C.2   303  LEU303      0.2260
    132  O         10.8830  -11.2790   15.9220 O.2   303  LEU303     -0.2867
    133  CB         9.3890  -10.4940   18.1890 C.3   303  LEU303      0.0270
    134  CG         8.1850   -9.7520   17.5770 C.3   303  LEU303      0.0019
    135  CD1        6.8150  -10.2090   18.2180 C.3   303  LEU303      0.0001
    136  CD2        8.3780   -8.2360   17.6770 C.3   303  LEU303      0.0001
    137  N          8.5830  -11.8950   13.5480 N.3   305  LEU305     -0.1245
    138  CA         7.8420  -11.0630   12.5830 C.3   305  LEU305      0.1561
    139  C          7.8010  -11.7460   11.2080 C.2   305  LEU305      0.2260
    140  O          7.8540  -11.0940   10.1430 O.2   305  LEU305     -0.2867
    141  CB         8.4310   -9.6360   12.5140 C.3   305  LEU305      0.0270
    142  CG         8.4210   -8.9140   13.8790 C.3   305  LEU305      0.0019
    143  CD1        9.1800   -7.5610   13.8390 C.3   305  LEU305      0.0001
    144  CD2        6.9870   -8.7410   14.4140 C.3   305  LEU305      0.0001
    145  N          6.0230  -11.1330    7.8160 N.3   308  PHE308     -0.1241
    146  CA         6.6670  -10.2240    6.8510 C.3   308  PHE308      0.1605
    147  C          7.8470  -10.8490    6.0870 C.2   308  PHE308      0.2264
    148  O          8.6050  -10.1260    5.4360 O.2   308  PHE308     -0.2867
    149  CB         7.1650   -8.9450    7.5530 C.3   308  PHE308      0.0534
    150  CG         6.0890   -8.1650    8.2670 C.ar  308  PHE308     -0.0203
    151  CD1        5.0370   -7.5760    7.5540 C.ar  308  PHE308     -0.0042
    152  CD2        6.1390   -8.0000    9.6510 C.ar  308  PHE308     -0.0042
    153  CE1        4.0510   -6.8510    8.2110 C.ar  308  PHE308     -0.0003
    154  CE2        5.1400   -7.2760   10.3310 C.ar  308  PHE308     -0.0003
    155  CZ         4.0980   -6.6860    9.6010 C.ar  308  PHE308     -0.0000
@<TRIPOS>BOND
     1   148   147    2
     2   147   146    1
     3    70    71    2
     4    70    69    1
     5   146   149    1
     6   146   145    1
     7   149   150    1
     8   151   153   ar
     9   151   150   ar
    10    69    68    1
    11    69    72    1
    12    74    72    1
    13    36    35    2
    14   153   155   ar
    15   150   152   ar
    16    60    59    2
    17    72    73    1
    18    66    64   ar
    19    66    67   ar
    20    35    34    1
    21    59    58    1
    22    64    62   ar
    23   155   154   ar
    24    41    39   ar
    25    41    42   ar
    26    67    65   ar
    27   152   154   ar
    28    39    38   ar
    29    73    75    1
    30   140   139    2
    31    62    61    1
    32    62    63   ar
    33    34    33    1
    34    34    37    1
    35    42    44   ar
    36    42    40   ar
    37    58    61    1
    38    58    57    1
    39    38    37    1
    40    38    40   ar
    41    44    46   ar
    42    65    63   ar
    43    57    49   am
    44    40    43   ar
    45    79    78    2
    46   139   138    1
    47    46    45   ar
    48    47    48    1
    49    43    45   ar
    50    78    77    1
    51    49    48    1
    52    49    50    2
    53   141   138    1
    54   141   142    1
    55   138   137    1
    56    48    51    1
    57    51    52    1
    58    80    77    1
    59    80    81    1
    60    77    76    1
    61   128   127   ar
    62   128   126   ar
    63    19    18    1
    64   143   142    1
    65   142   144    1
    66   127   125   ar
    67    52    53   ar
    68    52    54   ar
    69    81    83   am
    70    81    82    2
    71   126   124   ar
    72    53    55   ar
    73    54    56   ar
    74    20    18    1
    75   125   122   ar
    76    18    17    1
    77    17    14    1
    78    13    14    1
    79    14    15    1
    80    55    56   ar
    81   124   122   ar
    82   124   123   ar
    83   132   131    2
    84   122   120   ar
    85   131   130    1
    86    16    15    2
    87    15    21   am
    88    87    86    2
    89   123   121   ar
    90   116   115    1
    91   116   117    1
    92   116   119    1
    93   118   117    2
    94   120   121   ar
    95   120   119    1
    96    84    85    1
    97   104   103    1
    98   134   136    1
    99   134   133    1
   100   134   135    1
   101   130   133    1
   102   130   129    1
   103    21    22    1
   104    86    85    1
   105    85    88    1
   106   102   103   ar
   107   102   100   ar
   108   103   101   ar
   109    88    89    1
   110    29    27   ar
   111    29    31   ar
   112    22    23    1
   113    22    25    1
   114    27    26   ar
   115    23    24    2
   116    32    31    1
   117   100    98   ar
   118   101    99   ar
   119    12    11    1
   120    31    30   ar
   121    89    90    1
   122    26    25    1
   123    26    28   ar
   124     9    11   ar
   125     9     7   ar
   126    92    90   am
   127    90    91    2
   128    11    10   ar
   129    30    28   ar
   130     7     6   ar
   131    98    99   ar
   132    98    97    1
   133   113   114   ar
   134   113   111   ar
   135    10     8   ar
   136   114   112   ar
   137     6     8   ar
   138     6     5    1
   139    97    94    1
   140   111   110   ar
   141     5     2    1
   142    96    95    2
   143    93    94    1
   144   112   110   ar
   145    94    95    1
   146   110   109    1
   147     2     1    1
   148     2     3    1
   149     3     4    2
   150   109   106    1
   151   105   106    1
   152   107   106    1
   153   107   108    2
