@<TRIPOS>MOLECULE
tmp/3c3yA00.pdb
 187 184 0 0 0
SMALL
GASTEIGER

@<TRIPOS>ATOM
      1  N          4.4220    8.0320   26.1510 N.3    40  MET40      -0.1230
      2  CA         3.1940    7.2520   26.0860 C.3    40  MET40       0.1702
      3  C          2.1580    7.8980   25.1800 C.2    40  MET40       0.2593
      4  O          1.1480    7.2790   24.8940 O.2    40  MET40      -0.2718
      5  CB         2.5840    7.0430   27.4710 C.3    40  MET40       0.0401
      6  CG         3.4720    6.2390   28.4160 C.3    40  MET40       0.0596
      7  SD         2.5390    5.5430   29.7990 S.3    40  MET40      -0.1393
      8  CE         1.8440    7.0100   30.5300 C.3    40  MET40       0.0692
      9  N          2.3730    9.1460   24.7700 N.am   41  SER41      -0.1938
     10  CA         1.3950    9.8360   23.9220 C.3    41  SER41       0.2055
     11  C          1.2930    9.1570   22.5550 C.2    41  SER41       0.2643
     12  O          2.2900    8.7050   21.9940 O.2    41  SER41      -0.2714
     13  CB         1.7420   11.3310   23.8020 C.3    41  SER41       0.2130
     14  OG         0.7600   12.0560   23.0740 O.3    41  SER41      -0.2179
     15  N          0.0700    9.0410   22.0410 N.am   42  THR42      -0.1950
     16  CA        -0.1710    8.2640   20.8220 C.3    42  THR42       0.1897
     17  C          0.5780    8.8140   19.5900 C.2    42  THR42       0.2313
     18  O          0.6010   10.0200   19.3320 O.2    42  THR42      -0.2863
     19  CB        -1.7000    8.1140   20.5430 C.3    42  THR42       0.1794
     20  OG1       -2.3170    7.3490   21.5940 O.3    42  THR42      -0.2208
     21  CG2       -1.9490    7.4210   19.2150 C.3    42  THR42       0.0378
     22  N         -7.5980    4.2510   28.5770 N.3    66  GLY66      -0.1210
     23  CA        -6.1960    4.7010   28.5480 C.3    66  GLY66       0.1956
     24  C         -6.0770    6.0530   27.8530 C.2    66  GLY66       0.2612
     25  O         -5.9180    6.1240   26.6260 O.2    66  GLY66      -0.2717
     26  N         -6.1660    7.1220   28.6400 N.am   67  VAL67      -0.1965
     27  CA        -6.2880    8.4840   28.1290 C.3    67  VAL67       0.1727
     28  C         -4.9680    9.2440   28.2440 C.2    67  VAL67       0.2616
     29  O         -4.5940   10.0110   27.3380 O.2    67  VAL67      -0.2715
     30  CB        -7.4100    9.2500   28.8720 C.3    67  VAL67       0.0290
     31  CG1       -7.4300   10.7260   28.4690 C.3    67  VAL67       0.0023
     32  CG2       -8.7570    8.5770   28.6150 C.3    67  VAL67       0.0023
     33  N         -4.2810    9.0630   29.3720 N.am   68  PHE68      -0.1960
     34  CA        -3.0450    9.7870   29.6340 C.3    68  PHE68       0.1771
     35  C         -3.2890   11.2830   29.4430 C.2    68  PHE68       0.2620
     36  O         -4.2790   11.8190   29.9460 O.2    68  PHE68      -0.2715
     37  CB        -1.9290    9.2440   28.7310 C.3    68  PHE68       0.0574
     38  CG        -0.5480    9.7240   29.1000 C.ar   68  PHE68      -0.0200
     39  CD1       -0.1200    9.7500   30.4170 C.ar   68  PHE68      -0.0042
     40  CD2        0.3100   10.1600   28.1090 C.ar   68  PHE68      -0.0042
     41  CE1        1.1630   10.2190   30.7450 C.ar   68  PHE68      -0.0003
     42  CE2        1.6020   10.6150   28.4280 C.ar   68  PHE68      -0.0003
     43  CZ         2.0130   10.6320   29.7430 C.ar   68  PHE68      -0.0000
     44  N         -2.4110   11.9490   28.6980 N.am   69  THR69      -0.1937
     45  CA        -2.5180   13.4060   28.5240 C.3    69  THR69       0.2028
     46  C         -3.4230   13.8250   27.3650 C.2    69  THR69       0.2643
     47  O         -3.5570   15.0180   27.0910 O.2    69  THR69      -0.2714
     48  CB        -1.1310   14.0280   28.3160 C.3    69  THR69       0.1808
     49  OG1       -0.5190   13.3790   27.1900 O.3    69  THR69      -0.2208
     50  CG2       -0.2590   13.8130   29.5680 C.3    69  THR69       0.0379
     51  N         -4.0340   12.8540   26.6820 N.am   70  GLY70      -0.1939
     52  CA        -5.1870   13.1340   25.8430 C.3    70  GLY70       0.2014
     53  C         -5.0570   13.1940   24.3300 C.2    70  GLY70       0.2639
     54  O         -6.0200   13.5410   23.6720 O.2    70  GLY70      -0.2714
     55  N         -3.8980   12.8730   23.7560 N.am   71  TYR71      -0.1959
     56  CA        -3.7610   12.9880   22.3130 C.3    71  TYR71       0.1771
     57  C         -4.7970   12.1740   21.5340 C.2    71  TYR71       0.2620
     58  O         -5.5390   12.7130   20.7020 O.2    71  TYR71      -0.2715
     59  CB        -2.3490   12.6010   21.8530 C.3    71  TYR71       0.0574
     60  CG        -2.0940   12.9280   20.4070 C.ar   71  TYR71      -0.0198
     61  CD1       -2.4300   12.0320   19.3980 C.ar   71  TYR71      -0.0009
     62  CD2       -1.5280   14.1540   20.0370 C.ar   71  TYR71      -0.0009
     63  CE1       -2.2060   12.3260   18.0660 C.ar   71  TYR71       0.0417
     64  CE2       -1.3140   14.4660   18.7090 C.ar   71  TYR71       0.0417
     65  CZ        -1.6470   13.5390   17.7170 C.ar   71  TYR71       0.1957
     66  OH        -1.4410   13.8020   16.3760 O.3    71  TYR71      -0.2866
     67  N         -4.8670   10.8700   21.7870 N.am   72  SER72      -0.1950
     68  CA        -5.8410   10.0520   21.0270 C.3    72  SER72       0.1924
     69  C         -7.2640   10.4590   21.3570 C.2    72  SER72       0.2314
     70  O         -8.1480   10.3780   20.5010 O.2    72  SER72      -0.2863
     71  CB        -5.6280    8.5330   21.2370 C.3    72  SER72       0.2116
     72  OG        -5.7820    8.1490   22.5900 O.3    72  SER72      -0.2180
     73  N        -11.8670    6.5650   29.8350 N.3    89  ILE89      -0.1231
     74  CA       -11.5800    5.9400   31.1290 C.3    89  ILE89       0.1692
     75  C        -10.0800    5.9410   31.4160 C.2    89  ILE89       0.2592
     76  O         -9.2810    5.4580   30.6090 O.2    89  ILE89      -0.2718
     77  CB       -12.1130    4.4680   31.1480 C.3    89  ILE89       0.0266
     78  CG1      -13.6310    4.4240   30.9520 C.3    89  ILE89       0.0019
     79  CG2      -11.7020    3.7630   32.4230 C.3    89  ILE89       0.0020
     80  CD1      -14.1070    3.1030   30.4070 C.3    89  ILE89       0.0001
     81  N         -9.6960    6.4530   32.5790 N.am   90  ASP90      -0.1960
     82  CA        -8.2850    6.3780   32.9880 C.3    90  ASP90       0.1840
     83  C         -8.2340    6.5300   34.5070 C.2    90  ASP90       0.2622
     84  O         -9.0450    7.2710   35.0550 O.2    90  ASP90      -0.2715
     85  CB        -7.4490    7.4980   32.3420 C.3    90  ASP90       0.1450
     86  CG        -5.9380    7.1820   32.3220 C.2    90  ASP90       0.3671
     87  OD1       -5.3070    7.1230   33.4050 O.co2  90  ASP90      -0.2456
     88  OD2       -5.3790    6.9730   31.2190 O.co2  90  ASP90      -0.2456
     89  N         -7.3080    5.8630   35.1960 N.am   91  PHE91      -0.1960
     90  CA        -7.2560    6.0830   36.6450 C.3    91  PHE91       0.1771
     91  C         -6.4380    7.2920   37.0500 C.2    91  PHE91       0.2619
     92  O         -6.4200    7.6640   38.2300 O.2    91  PHE91      -0.2715
     93  CB        -6.9210    4.8200   37.4720 C.3    91  PHE91       0.0574
     94  CG        -5.5710    4.1890   37.1970 C.ar   91  PHE91      -0.0200
     95  CD1       -4.5430    4.8630   36.5540 C.ar   91  PHE91      -0.0042
     96  CD2       -5.3180    2.9030   37.6700 C.ar   91  PHE91      -0.0042
     97  CE1       -3.3040    4.2370   36.3490 C.ar   91  PHE91      -0.0003
     98  CE2       -4.0940    2.2790   37.4650 C.ar   91  PHE91      -0.0003
     99  CZ        -3.0840    2.9540   36.8080 C.ar   91  PHE91      -0.0000
    100  N         -5.8090    7.9410   36.0680 N.am   92  ASP92      -0.1971
    101  CA        -4.9470    9.1110   36.3280 C.3    92  ASP92       0.1709
    102  C         -5.5690   10.4040   35.8040 C.2    92  ASP92       0.2293
    103  O         -5.3890   10.7650   34.6400 O.2    92  ASP92      -0.2864
    104  CB        -3.5750    8.8840   35.6870 C.3    92  ASP92       0.1436
    105  CG        -2.5850    9.9990   35.9770 C.2    92  ASP92       0.3671
    106  OD1       -2.9650   10.9840   36.6410 O.co2  92  ASP92      -0.2456
    107  OD2       -1.4180    9.8720   35.5370 O.co2  92  ASP92      -0.2456
    108  N        -11.2560    6.0290   36.9850 N.3   117  SER117     -0.1202
    109  CA       -11.5020    4.7210   37.5780 C.3   117  SER117      0.2020
    110  C        -10.5080    3.7140   37.0560 C.2   117  SER117      0.2619
    111  O         -9.9710    3.8740   35.9630 O.2   117  SER117     -0.2717
    112  CB       -12.9200    4.2680   37.1950 C.3   117  SER117      0.2103
    113  OG       -13.1870    2.9190   37.5400 O.3   117  SER117     -0.2182
    114  N        -10.3090    2.6470   37.8160 N.am  118  ASP118     -0.1959
    115  CA        -9.7670    1.4400   37.2490 C.3   118  ASP118      0.1840
    116  C        -10.5920    1.0890   36.0120 C.2   118  ASP118      0.2621
    117  O        -11.8230    1.1700   36.0290 O.2   118  ASP118     -0.2715
    118  CB        -9.8750    0.2910   38.2470 C.3   118  ASP118      0.1450
    119  CG        -9.4160   -1.0070   37.6490 C.2   118  ASP118      0.3671
    120  OD1       -8.1900   -1.1830   37.5130 O.co2 118  ASP118     -0.2456
    121  OD2      -10.2760   -1.8300   37.2790 O.co2 118  ASP118     -0.2456
    122  N         -9.9110    0.7000   34.9420 N.am  119  ALA119     -0.1977
    123  CA       -10.5630    0.4430   33.6780 C.3   119  ALA119      0.1597
    124  C        -11.5380   -0.7290   33.7100 C.2   119  ALA119      0.2287
    125  O        -12.6470   -0.6230   33.1980 O.2   119  ALA119     -0.2864
    126  CB        -9.5300    0.2180   32.5810 C.3   119  ALA119      0.0319
    127  N        -11.0080    2.2310   21.6350 N.3   140  PHE140     -0.1241
    128  CA        -9.5540    2.2680   21.5900 C.3   140  PHE140      0.1605
    129  C         -9.0220    1.7900   22.9340 C.2   140  PHE140      0.2264
    130  O         -9.3180    2.3790   23.9660 O.2   140  PHE140     -0.2867
    131  CB        -9.0800    3.6850   21.2800 C.3   140  PHE140      0.0534
    132  CG        -7.5740    3.8110   21.0770 C.ar  140  PHE140     -0.0203
    133  CD1       -6.8520    2.9100   20.2870 C.ar  140  PHE140     -0.0042
    134  CD2       -6.8740    4.8620   21.6590 C.ar  140  PHE140     -0.0042
    135  CE1       -5.4640    3.0400   20.0910 C.ar  140  PHE140     -0.0003
    136  CE2       -5.5070    5.0030   21.4440 C.ar  140  PHE140     -0.0003
    137  CZ        -4.8030    4.0790   20.6650 C.ar  140  PHE140     -0.0000
    138  N         -5.8740    1.2430   25.1460 N.3   142  ASP142     -0.1225
    139  CA        -4.4910    1.7150   25.2310 C.3   142  ASP142      0.1805
    140  C         -4.0890    1.9020   26.6930 C.2   142  ASP142      0.2598
    141  O         -3.4080    2.8420   27.0410 O.2   142  ASP142     -0.2718
    142  CB        -4.3230    3.0330   24.4810 C.3   142  ASP142      0.1424
    143  CG        -2.8690    3.3980   24.2750 C.2   142  ASP142      0.3668
    144  OD1       -2.0000    2.4950   24.3250 O.co2 142  ASP142     -0.2456
    145  OD2       -2.5570    4.6000   24.0530 O.co2 142  ASP142     -0.2456
    146  N         -4.5700    1.0190   27.5670 N.am  143  ALA143     -0.1966
    147  CA        -4.2510    1.1210   28.9900 C.3   143  ALA143      0.1728
    148  C         -3.0990    0.1690   29.3490 C.2   143  ALA143      0.2616
    149  O         -2.1260    0.0770   28.6140 O.2   143  ALA143     -0.2715
    150  CB        -5.4970    0.8810   29.8560 C.3   143  ALA143      0.0334
    151  N         -3.2220   -0.5440   30.4650 N.am  144  ASP144     -0.1957
    152  CA        -2.1880   -1.4800   30.9040 C.3   144  ASP144      0.1840
    153  C         -2.1930   -2.7700   30.0740 C.2   144  ASP144      0.2621
    154  O         -3.1930   -3.4650   29.9640 O.2   144  ASP144     -0.2715
    155  CB        -2.3300   -1.7700   32.4070 C.3   144  ASP144      0.1450
    156  CG        -3.7390   -2.1610   32.8010 C.2   144  ASP144      0.3671
    157  OD1       -4.7190   -1.5830   32.2680 O.co2 144  ASP144     -0.2456
    158  OD2       -3.8590   -3.0460   33.6810 O.co2 144  ASP144     -0.2456
    159  N         -1.0520   -3.0700   29.4610 N.am  145  LYS145     -0.1977
    160  CA        -0.9960   -4.1080   28.4380 C.3   145  LYS145      0.1596
    161  C         -1.3280   -5.5280   28.9500 C.2   145  LYS145      0.2287
    162  O         -1.9780   -6.3010   28.2330 O.2   145  LYS145     -0.2864
    163  CB         0.3480   -4.0780   27.6940 C.3   145  LYS145      0.0298
    164  CG         0.8670   -2.6650   27.3440 C.3   145  LYS145      0.0038
    165  CD        -0.1770   -1.7410   26.7140 C.3   145  LYS145      0.0206
    166  CE         0.3320   -0.2770   26.5960 C.3   145  LYS145      0.1093
    167  NZ        -0.7750    0.6810   26.2360 N.3   145  LYS145     -0.1314
    168  N         -3.6120   -6.3460   30.8040 N.3   147  ASN147     -0.1240
    169  CA        -5.0680   -6.5110   30.8620 C.3   147  ASN147      0.1653
    170  C         -5.7690   -6.4660   29.5040 C.2   147  ASN147      0.2266
    171  O         -6.9900   -6.5630   29.4260 O.2   147  ASN147     -0.2867
    172  CB        -5.6970   -5.4830   31.8080 C.3   147  ASN147      0.1155
    173  CG        -5.7530   -5.9660   33.2390 C.2   147  ASN147      0.2627
    174  OD1       -5.9290   -7.1580   33.4980 O.2   147  ASN147     -0.2716
    175  ND2       -5.6070   -5.0410   34.1790 N.am  147  ASN147     -0.0877
    176  N         -9.6880   -6.8320   28.6100 N.3   151  TYR151     -0.1241
    177  CA       -10.4050   -5.7000   28.0310 C.3   151  TYR151      0.1605
    178  C        -11.1340   -6.1220   26.7480 C.2   151  TYR151      0.2264
    179  O        -12.2530   -5.6920   26.4930 O.2   151  TYR151     -0.2867
    180  CB        -9.4790   -4.5060   27.7260 C.3   151  TYR151      0.0534
    181  CG        -8.8720   -3.8730   28.9570 C.ar  151  TYR151     -0.0201
    182  CD1       -9.6090   -3.7150   30.1230 C.ar  151  TYR151     -0.0009
    183  CD2       -7.5500   -3.4460   28.9620 C.ar  151  TYR151     -0.0009
    184  CE1       -9.0530   -3.1400   31.2480 C.ar  151  TYR151      0.0417
    185  CE2       -6.9850   -2.8610   30.0850 C.ar  151  TYR151      0.0417
    186  CZ        -7.7290   -2.7260   31.2280 C.ar  151  TYR151      0.1957
    187  OH        -7.1920   -2.1550   32.3560 O.3   151  TYR151     -0.2866
@<TRIPOS>BOND
     1    66    65    1
     2    65    63   ar
     3    65    64   ar
     4    63    61   ar
     5    64    62   ar
     6    21    19    1
     7    18    17    2
     8    61    60   ar
     9    17    16    1
    10    62    60   ar
    11   135   133   ar
    12   135   137   ar
    13   133   132   ar
    14    60    59    1
    15    70    69    2
    16    19    16    1
    17    19    20    1
    18   137   136   ar
    19    58    57    2
    20    16    15    1
    21    68    71    1
    22    68    69    1
    23    68    67    1
    24   132   131    1
    25   132   134   ar
    26    71    72    1
    27   131   128    1
    28   136   134   ar
    29    57    67   am
    30    57    56    1
    31   128   127    1
    32   128   129    1
    33    59    56    1
    34    12    11    2
    35    15    11   am
    36    56    55    1
    37    11    10    1
    38   129   130    2
    39    14    13    1
    40    54    53    2
    41    55    53   am
    42    13    10    1
    43    10     9    1
    44   145   143   ar
    45   143   144   ar
    46   143   142    1
    47    53    52    1
    48   142   139    1
    49     9     3   am
    50     4     3    2
    51   138   139    1
    52     3     2    1
    53   139   140    1
    54    52    51    1
    55     2     1    1
    56     2     5    1
    57   167   166    1
    58   179   178    2
    59   166   165    1
    60    25    24    2
    61    51    46   am
    62   140   141    2
    63   140   146   am
    64   165   164    1
    65   178   177    1
    66    47    46    2
    67    49    48    1
    68    29    28    2
    69   164   163    1
    70    46    45    1
    71     5     6    1
    72   146   147    1
    73   163   160    1
    74   180   177    1
    75   180   181    1
    76    24    23    1
    77    24    26   am
    78   177   176    1
    79    40    42   ar
    80    40    38   ar
    81    27    28    1
    82    27    26    1
    83    27    30    1
    84   162   161    2
    85    28    33   am
    86    48    45    1
    87    48    50    1
    88     6     7    1
    89    42    43   ar
    90   160   161    1
    91   160   159    1
    92    31    30    1
    93    45    44    1
    94    23    22    1
    95   149   148    2
    96    32    30    1
    97    44    35   am
    98    37    38    1
    99    37    34    1
   100   181   183   ar
   101   181   182   ar
   102   183   185   ar
   103   147   148    1
   104   147   150    1
   105    38    39   ar
   106   148   151   am
   107    33    34    1
   108   171   170    2
   109    35    34    1
   110    35    36    2
   111   159   153   am
   112   170   169    1
   113    43    41   ar
   114     7     8    1
   115    73    74    1
   116   154   153    2
   117   153   152    1
   118   185   186   ar
   119   182   184   ar
   120    80    78    1
   121    39    41   ar
   122   151   152    1
   123    76    75    2
   124   168   169    1
   125   169   172    1
   126   152   155    1
   127    78    77    1
   128    74    77    1
   129    74    75    1
   130    77    79    1
   131    88    86   ar
   132   186   184   ar
   133   186   187    1
   134    75    81   am
   135   172   173    1
   136   157   156   ar
   137    86    85    1
   138    86    87   ar
   139    85    82    1
   140   155   156    1
   141    81    82    1
   142   126   123    1
   143   156   158   ar
   144    82    83    1
   145   125   124    2
   146   173   174    2
   147   173   175   am
   148   123   124    1
   149   123   122    1
   150    83    84    2
   151    83    89   am
   152   103   102    2
   153   122   116   am
   154    89    90    1
   155   107   105   ar
   156   104   105    1
   157   104   101    1
   158   102   101    1
   159   111   110    2
   160   105   106   ar
   161   116   117    2
   162   116   115    1
   163   100   101    1
   164   100    91   am
   165    97    95   ar
   166    97    99   ar
   167    95    94   ar
   168    90    91    1
   169    90    93    1
   170    99    98   ar
   171   108   109    1
   172    91    92    2
   173   110   109    1
   174   110   114   am
   175   112   113    1
   176   112   109    1
   177    94    93    1
   178    94    96   ar
   179   115   114    1
   180   115   118    1
   181   121   119   ar
   182    98    96   ar
   183   120   119   ar
   184   119   118    1
