@<TRIPOS>MOLECULE
tmp/3c41A00.pdb
 105 99 0 0 0
SMALL
GASTEIGER

@<TRIPOS>ATOM
      1  N         26.7020   -0.6240    4.9960 N.3    13  PHE13      -0.1241
      2  CA        26.7310   -0.6910    3.5460 C.3    13  PHE13       0.1605
      3  C         28.1140   -0.2200    3.1010 C.2    13  PHE13       0.2264
      4  O         28.3220    0.9520    2.7690 O.2    13  PHE13      -0.2867
      5  CB        25.6300    0.1980    2.9430 C.3    13  PHE13       0.0534
      6  CG        24.2530   -0.4050    3.0250 C.ar   13  PHE13      -0.0203
      7  CD1       23.9060   -1.4980    2.2290 C.ar   13  PHE13      -0.0042
      8  CD2       23.3080    0.1000    3.9080 C.ar   13  PHE13      -0.0042
      9  CE1       22.6410   -2.0790    2.3110 C.ar   13  PHE13      -0.0003
     10  CE2       22.0410   -0.4720    4.0000 C.ar   13  PHE13      -0.0003
     11  CZ        21.7080   -1.5680    3.1960 C.ar   13  PHE13      -0.0000
     12  N         30.1560    2.4400    5.4040 N.3    16  LEU16      -0.1245
     13  CA        29.1830    3.2570    6.1190 C.3    16  LEU16       0.1561
     14  C         28.2550    2.4090    6.9730 C.2    16  LEU16       0.2260
     15  O         27.4800    1.6070    6.4520 O.2    16  LEU16      -0.2867
     16  CB        28.3510    4.0740    5.1240 C.3    16  LEU16       0.0270
     17  CG        27.6600    5.3660    5.5930 C.3    16  LEU16       0.0019
     18  CD1       26.7550    5.8670    4.4730 C.3    16  LEU16       0.0001
     19  CD2       26.8390    5.1280    6.8630 C.3    16  LEU16       0.0001
     20  N         25.1880    2.2260    8.5310 N.3    18  VAL18      -0.1245
     21  CA        23.8840    2.8730    8.5110 C.3    18  VAL18       0.1561
     22  C         23.0500    2.7090    9.7800 C.2    18  VAL18       0.2260
     23  O         22.3650    3.6400   10.1940 O.2    18  VAL18      -0.2867
     24  CB        23.1060    2.4030    7.2930 C.3    18  VAL18       0.0252
     25  CG1       21.6520    2.7900    7.4000 C.3    18  VAL18       0.0019
     26  CG2       23.7280    3.0190    6.0770 C.3    18  VAL18       0.0019
     27  N         16.8230   12.4650    6.7360 N.3    38  SER38      -0.1202
     28  CA        17.1960   11.6030    5.6280 C.3    38  SER38       0.2020
     29  C         18.5140   10.8800    5.8950 C.2    38  SER38       0.2619
     30  O         19.5010   11.4870    6.3080 O.2    38  SER38      -0.2717
     31  CB        17.3120   12.4310    4.3490 C.3    38  SER38       0.2103
     32  OG        17.7440   11.6380    3.2590 O.3    38  SER38      -0.2182
     33  N         18.5230    9.5740    5.6620 N.am   39  GLY39      -0.1942
     34  CA        19.7320    8.8090    5.8780 C.3    39  GLY39       0.2014
     35  C         19.9160    8.2800    7.2880 C.2    39  GLY39       0.2640
     36  O         20.9560    7.7160    7.5980 O.2    39  GLY39      -0.2714
     37  N         18.9170    8.4530    8.1440 N.am   40  SER40      -0.1935
     38  CA        19.0110    7.9700    9.5170 C.3    40  SER40       0.2055
     39  C         18.7860    6.4520    9.6100 C.2    40  SER40       0.2644
     40  O         18.7950    5.8800   10.6980 O.2    40  SER40      -0.2714
     41  CB        18.0060    8.7170   10.4050 C.3    40  SER40       0.2130
     42  OG        16.6710    8.5360    9.9600 O.3    40  SER40      -0.2179
     43  N         18.5770    5.8060    8.4640 N.am   41  GLY41      -0.1939
     44  CA        18.3740    4.3660    8.4550 C.3    41  GLY41       0.2014
     45  C         16.9540    3.8760    8.6680 C.2    41  GLY41       0.2639
     46  O         16.7260    2.7010    9.0090 O.2    41  GLY41      -0.2714
     47  N         15.9840    4.7560    8.4620 N.am   42  LYS42      -0.1963
     48  CA        14.5960    4.3660    8.6680 C.3    42  LYS42       0.1728
     49  C         14.1270    3.2800    7.7000 C.2    42  LYS42       0.2617
     50  O         13.5340    2.2910    8.1260 O.2    42  LYS42      -0.2715
     51  CB        13.6940    5.5930    8.5900 C.3    42  LYS42       0.0311
     52  CG        14.0590    6.6570    9.6170 C.3    42  LYS42       0.0038
     53  CD        13.0220    7.7660    9.6690 C.3    42  LYS42       0.0206
     54  CE        12.9050    8.4910    8.3420 C.3    42  LYS42       0.1093
     55  NZ        14.1920    9.1140    7.9250 N.3    42  LYS42      -0.1314
     56  N         14.3930    3.4540    6.4080 N.am   43  SER43      -0.1936
     57  CA        13.9850    2.4630    5.4110 C.3    43  SER43       0.2055
     58  C         14.7140    1.1410    5.5800 C.2    43  SER43       0.2643
     59  O         14.1260    0.0620    5.4120 O.2    43  SER43      -0.2714
     60  CB        14.2480    2.9730    3.9970 C.3    43  SER43       0.2130
     61  OG        13.2740    3.9070    3.6060 O.3    43  SER43      -0.2179
     62  N         16.0030    1.2360    5.8940 N.am   44  THR44      -0.1950
     63  CA        16.8360    0.0570    6.0790 C.3    44  THR44       0.1897
     64  C         16.2700   -0.7870    7.2080 C.2    44  THR44       0.2313
     65  O         16.2140   -2.0130    7.1200 O.2    44  THR44      -0.2863
     66  CB        18.2820    0.4680    6.3990 C.3    44  THR44       0.1794
     67  OG1       18.8170    1.2060    5.2880 O.3    44  THR44      -0.2208
     68  CG2       19.1440   -0.7620    6.6780 C.3    44  THR44       0.0378
     69  N         13.1700   -2.5030    5.9250 N.3    47  ARG47      -0.1245
     70  CA        13.5140   -3.5490    4.9860 C.3    47  ARG47       0.1563
     71  C         14.0270   -4.8010    5.6890 C.2    47  ARG47       0.2260
     72  O         13.8580   -5.9050    5.1750 O.2    47  ARG47      -0.2867
     73  CB        14.5300   -3.0390    3.9630 C.3    47  ARG47       0.0307
     74  CG        13.8730   -2.2320    2.8300 C.3    47  ARG47       0.0489
     75  CD        14.8460   -1.9550    1.6930 C.3    47  ARG47       0.2205
     76  NE        15.8450   -0.9650    2.0690 N.pl3  47  ARG47      -0.0865
     77  CZ        15.7370    0.3410    1.8360 C.cat  47  ARG47       0.5346
     78  NH1       14.6630    0.8320    1.2120 N.pl3  47  ARG47       0.1354
     79  NH2       16.7040    1.1580    2.2350 N.pl3  47  ARG47       0.1354
     80  N         16.0500   -6.9910    3.3580 N.3    53  GLU53      -0.1245
     81  CA        17.4550   -6.6400    3.4890 C.3    53  GLU53       0.1567
     82  C         18.0020   -7.4720    4.6350 C.2    53  GLU53       0.2260
     83  O         17.2790   -7.7990    5.5780 O.2    53  GLU53      -0.2867
     84  CB        17.6090   -5.1550    3.8100 C.3    53  GLU53       0.0388
     85  CG        19.0460   -4.6760    3.9560 C.3    53  GLU53       0.1160
     86  CD        19.7950   -4.6230    2.6350 C.2    53  GLU53       0.3649
     87  OE1       19.2820   -4.0030    1.6770 O.co2  53  GLU53      -0.2457
     88  OE2       20.9080   -5.1890    2.5570 O.co2  53  GLU53      -0.2457
     89  N          6.2160    2.7850    4.7500 N.3   163  ASP163     -0.1225
     90  CA         7.3520    3.6750    4.5550 C.3   163  ASP163      0.1805
     91  C          6.8500    4.9390    3.8170 C.2   163  ASP163      0.2597
     92  O          6.7260    4.9390    2.5830 O.2   163  ASP163     -0.2718
     93  CB         8.4520    2.9770    3.7380 C.3   163  ASP163      0.1424
     94  CG         9.7990    3.6710    3.8810 C.2   163  ASP163      0.3668
     95  OD1        9.8370    4.7660    4.4740 O.co2 163  ASP163     -0.2456
     96  OD2       10.8180    3.1380    3.4050 O.co2 163  ASP163     -0.2456
     97  N          6.5540    5.9920    4.5790 N.am  164  GLU164     -0.1979
     98  CA         6.0370    7.2480    4.0250 C.3   164  GLU164      0.1602
     99  C          4.8830    7.0340    3.0450 C.2   164  GLU164      0.2287
    100  O          4.9670    7.3910    1.8740 O.2   164  GLU164     -0.2864
    101  CB         7.1510    8.0380    3.3410 C.3   164  GLU164      0.0415
    102  CG         8.1350    8.6660    4.3160 C.3   164  GLU164      0.1163
    103  CD         9.0810    9.6300    3.6260 C.2   164  GLU164      0.3649
    104  OE1        8.9810   10.8550    3.8730 O.co2 164  GLU164     -0.2457
    105  OE2        9.9230    9.1670    2.8270 O.co2 164  GLU164     -0.2457
@<TRIPOS>BOND
     1    78    77    1
     2    87    86   ar
     3    75    76    1
     4    75    74    1
     5    77    76    2
     6    77    79    1
     7   100    99    2
     8     7     9   ar
     9     7     6   ar
    10     9    11   ar
    11    88    86   ar
    12    92    91    2
    13    86    85    1
    14     4     3    2
    15   105   103   ar
    16    74    73    1
    17     5     6    1
    18     5     2    1
    19     6     8   ar
    20    99    98    1
    21     3     2    1
    22    11    10   ar
    23    32    31    1
    24   101    98    1
    25   101   102    1
    26    80    81    1
    27    96    94   ar
    28    81    84    1
    29    81    82    1
    30     2     1    1
    31    61    60    1
    32   103   104   ar
    33   103   102    1
    34    93    94    1
    35    93    90    1
    36    84    85    1
    37    91    90    1
    38    91    97   am
    39    94    95   ar
    40     8    10   ar
    41    73    70    1
    42    60    57    1
    43    98    97    1
    44    31    28    1
    45    18    17    1
    46    90    89    1
    47    82    83    2
    48    70    71    1
    49    70    69    1
    50    16    17    1
    51    16    13    1
    52    72    71    2
    53    67    66    1
    54    12    13    1
    55    57    58    1
    56    57    56    1
    57    59    58    2
    58    58    62   am
    59    17    19    1
    60    28    29    1
    61    28    27    1
    62    33    34    1
    63    33    29   am
    64    34    35    1
    65    62    63    1
    66    29    30    2
    67    26    24    1
    68    63    66    1
    69    63    64    1
    70    13    14    1
    71    66    68    1
    72    56    49   am
    73    15    14    2
    74    65    64    2
    75    35    36    2
    76    35    37   am
    77    24    25    1
    78    24    21    1
    79    49    50    2
    80    49    48    1
    81    55    54    1
    82    37    38    1
    83    54    53    1
    84    44    43    1
    85    44    45    1
    86    47    45   am
    87    47    48    1
    88    43    39   am
    89    21    20    1
    90    21    22    1
    91    51    48    1
    92    51    52    1
    93    45    46    2
    94    38    39    1
    95    38    41    1
    96    39    40    2
    97    52    53    1
    98    22    23    2
    99    42    41    1
