@<TRIPOS>MOLECULE
tmp/3c43B07.pdb
 226 221 0 0 0
SMALL
GASTEIGER

@<TRIPOS>ATOM
      1  N         -1.1190   58.0700   26.8330 N.3    87  ARG87      -0.1231
      2  CA        -2.3520   57.5410   27.3860 C.3    87  ARG87       0.1694
      3  C         -3.3970   57.1460   26.3440 C.2    87  ARG87       0.2592
      4  O         -4.0750   56.1300   26.5080 O.2    87  ARG87      -0.2718
      5  CB        -2.9090   58.5210   28.4310 C.3    87  ARG87       0.0321
      6  CG        -4.3910   58.4560   28.6410 C.3    87  ARG87       0.0489
      7  CD        -4.7960   58.4680   30.0880 C.3    87  ARG87       0.2205
      8  NE        -4.0440   59.3930   30.9350 N.pl3  87  ARG87      -0.0865
      9  CZ        -3.8830   59.1980   32.2440 C.cat  87  ARG87       0.5346
     10  NH1       -4.4230   58.1210   32.8210 N.pl3  87  ARG87       0.1354
     11  NH2       -3.1830   60.0520   32.9740 N.pl3  87  ARG87       0.1354
     12  N         -3.5070   57.9120   25.2660 N.am   88  HIS88      -0.1976
     13  CA        -4.4700   57.6030   24.2210 C.3    88  HIS88       0.1656
     14  C         -3.8240   57.3610   22.8470 C.2    88  HIS88       0.2291
     15  O         -4.3710   56.6350   22.0060 O.2    88  HIS88      -0.2864
     16  CB        -5.4760   58.7500   24.0970 C.3    88  HIS88       0.0771
     17  CG        -6.1580   59.0930   25.3820 C.ar   88  HIS88       0.0820
     18  ND1       -7.1100   58.2810   25.9590 N.ar   88  HIS88      -0.2267
     19  CD2       -5.9960   60.1410   26.2250 C.ar   88  HIS88       0.1154
     20  CE1       -7.5010   58.8120   27.1030 C.ar   88  HIS88       0.1986
     21  NE2       -6.8400   59.9400   27.2880 N.ar   88  HIS88      -0.2212
     22  N         -3.1680   64.6720   26.8470 N.3   167  GLU167     -0.1231
     23  CA        -3.3380   64.3400   28.2490 C.3   167  GLU167      0.1699
     24  C         -4.3000   65.2070   29.0530 C.2   167  GLU167      0.2592
     25  O         -5.1910   64.6830   29.7090 O.2   167  GLU167     -0.2718
     26  CB        -1.9750   64.3440   28.9500 C.3   167  GLU167      0.0402
     27  CG        -2.0240   64.1490   30.4490 C.3   167  GLU167      0.1161
     28  CD        -2.5370   62.7560   30.8430 C.2   167  GLU167      0.3649
     29  OE1       -2.6850   61.8900   29.9380 O.co2 167  GLU167     -0.2457
     30  OE2       -2.7810   62.5330   32.0590 O.co2 167  GLU167     -0.2457
     31  N         -4.1470   66.5220   28.9760 N.am  168  GLU168     -0.1979
     32  CA        -4.9480   67.4300   29.7950 C.3   168  GLU168      0.1602
     33  C         -6.1080   68.2040   29.1740 C.2   168  GLU168      0.2287
     34  O         -6.8500   68.8820   29.8810 O.2   168  GLU168     -0.2864
     35  CB        -3.9990   68.4420   30.4310 C.3   168  GLU168      0.0415
     36  CG        -2.7120   67.8200   30.9530 C.3   168  GLU168      0.1163
     37  CD        -2.9090   67.0850   32.2550 C.2   168  GLU168      0.3649
     38  OE1       -4.0610   66.7340   32.5740 O.co2 168  GLU168     -0.2457
     39  OE2       -1.9060   66.8470   32.9560 O.co2 168  GLU168     -0.2457
     40  N         -8.2600   64.5190   26.2380 N.3   171  SER171     -0.1217
     41  CA        -8.3310   63.1130   26.6720 C.3   171  SER171      0.1889
     42  C         -8.4000   62.2380   25.4270 C.2   171  SER171      0.2288
     43  O         -9.0980   61.2250   25.4010 O.2   171  SER171     -0.2866
     44  CB        -9.5770   62.8460   27.5170 C.3   171  SER171      0.2089
     45  OG        -9.5090   63.4750   28.7860 O.3   171  SER171     -0.2183
     46  N        -12.7750   69.7150   34.9170 N.3   319  PHE319     -0.1227
     47  CA       -11.4030   69.6060   34.4270 C.3   319  PHE319      0.1736
     48  C        -11.2610   70.4770   33.1890 C.2   319  PHE319      0.2595
     49  O        -10.1550   70.6460   32.6650 O.2   319  PHE319     -0.2718
     50  CB       -11.0480   68.1600   34.0800 C.3   319  PHE319      0.0547
     51  CG       -10.8540   67.2770   35.2830 C.ar  319  PHE319     -0.0202
     52  CD1       -9.6110   67.1950   35.9090 C.ar  319  PHE319     -0.0042
     53  CD2      -11.9140   66.5270   35.7950 C.ar  319  PHE319     -0.0042
     54  CE1       -9.4090   66.3740   37.0370 C.ar  319  PHE319     -0.0003
     55  CE2      -11.7290   65.6990   36.9270 C.ar  319  PHE319     -0.0003
     56  CZ       -10.4640   65.6260   37.5470 C.ar  319  PHE319     -0.0000
     57  N        -12.3900   71.0300   32.7400 N.am  320  ARG320     -0.1980
     58  CA       -12.4520   71.9130   31.5790 C.3   320  ARG320      0.1597
     59  C        -13.8970   72.2440   31.2550 C.2   320  ARG320      0.2287
     60  O        -14.8070   71.5540   31.6960 O.2   320  ARG320     -0.2864
     61  CB       -11.8140   71.2590   30.3560 C.3   320  ARG320      0.0334
     62  CG       -12.3740   69.8990   30.0330 C.3   320  ARG320      0.0492
     63  CD       -12.1630   69.5760   28.5680 C.3   320  ARG320      0.2205
     64  NE       -12.7390   68.2880   28.2400 N.pl3 320  ARG320     -0.0865
     65  CZ       -12.2540   67.1300   28.6710 C.cat 320  ARG320      0.5346
     66  NH1      -11.1710   67.1070   29.4420 N.pl3 320  ARG320      0.1354
     67  NH2      -12.8670   65.9940   28.3410 N.pl3 320  ARG320      0.1354
     68  N         -5.6700   59.6400   47.1080 N.3   509  TYR509     -0.1241
     69  CA        -5.4160   60.2270   45.8020 C.3   509  TYR509      0.1605
     70  C         -5.6270   61.7100   46.1080 C.2   509  TYR509      0.2264
     71  O         -4.6710   62.4710   46.1530 O.2   509  TYR509     -0.2867
     72  CB        -6.3790   59.7100   44.7220 C.3   509  TYR509      0.0534
     73  CG        -6.0540   60.3420   43.3930 C.ar  509  TYR509     -0.0201
     74  CD1       -6.7240   61.4780   42.9710 C.ar  509  TYR509     -0.0009
     75  CD2       -4.9570   59.9080   42.6420 C.ar  509  TYR509     -0.0009
     76  CE1       -6.3170   62.1790   41.8560 C.ar  509  TYR509      0.0417
     77  CE2       -4.5280   60.6090   41.5100 C.ar  509  TYR509      0.0417
     78  CZ        -5.2210   61.7500   41.1280 C.ar  509  TYR509      0.1957
     79  OH        -4.8250   62.4760   40.0260 O.3   509  TYR509     -0.2866
     80  N         -7.6200   67.4590   42.8260 N.3   512  PRO512     -0.2102
     81  CA        -8.8430   68.2280   42.5610 C.3   512  PRO512      0.1504
     82  C         -9.9160   67.4890   41.7480 C.2   512  PRO512      0.2576
     83  O         -9.6700   66.9790   40.6540 O.2   512  PRO512     -0.2718
     84  CB        -8.3170   69.4970   41.8850 C.3   512  PRO512      0.0282
     85  CG        -7.0110   69.0630   41.2720 C.3   512  PRO512      0.0208
     86  CD        -6.4220   68.1540   42.3150 C.3   512  PRO512      0.0893
     87  N        -11.1120   67.4490   42.3250 N.am  513  CYS513     -0.1957
     88  CA       -12.2690   66.7840   41.7590 C.3   513  CYS513      0.1843
     89  C        -12.1340   65.2720   41.7950 C.2   513  CYS513      0.2626
     90  O        -12.6800   64.5780   40.9420 O.2   513  CYS513     -0.2714
     91  CB       -12.5230   67.2370   40.3240 C.3   513  CYS513      0.0997
     92  SG       -14.2590   67.0580   39.8310 S.3   513  CYS513     -0.0797
     93  N        -11.3990   64.7620   42.7790 N.am  514  SER514     -0.1936
     94  CA       -11.2610   63.3250   42.9170 C.3   514  SER514      0.2055
     95  C        -12.3950   62.7630   43.7860 C.2   514  SER514      0.2643
     96  O        -13.1130   63.5080   44.4770 O.2   514  SER514     -0.2714
     97  CB        -9.9090   62.9600   43.5520 C.3   514  SER514      0.2130
     98  OG        -9.8150   63.4110   44.8980 O.3   514  SER514     -0.2179
     99  N        -12.5550   61.4460   43.7260 N.am  515  GLN515     -0.1963
    100  CA       -13.5480   60.7460   44.5150 C.3   515  GLN515      0.1733
    101  C        -13.0280   59.3440   44.8040 C.2   515  GLN515      0.2616
    102  O        -13.0370   58.4980   43.9290 O.2   515  GLN515     -0.2715
    103  CB       -14.9000   60.6490   43.7730 C.3   515  GLN515      0.0408
    104  CG       -15.9860   59.9490   44.5970 C.3   515  GLN515      0.0908
    105  CD       -17.3990   60.1460   44.0660 C.2   515  GLN515      0.2608
    106  OE1      -17.8220   59.4880   43.1190 O.2   515  GLN515     -0.2717
    107  NE2      -18.1350   61.0590   44.6850 N.am  515  GLN515     -0.0878
    108  N        -12.5660   59.1010   46.0300 N.am  516  LYS516     -0.1977
    109  CA       -12.0760   57.7720   46.3960 C.3   516  LYS516      0.1596
    110  C        -13.1150   57.0300   47.2440 C.2   516  LYS516      0.2287
    111  O        -12.9220   55.8740   47.6120 O.2   516  LYS516     -0.2864
    112  CB       -10.7540   57.8900   47.1570 C.3   516  LYS516      0.0298
    113  CG        -9.5880   58.3260   46.2790 C.3   516  LYS516      0.0038
    114  CD        -9.0250   57.1540   45.4780 C.3   516  LYS516      0.0206
    115  CE        -8.1310   56.2690   46.3550 C.3   516  LYS516      0.1093
    116  NZ        -7.7730   54.9760   45.6800 N.3   516  LYS516     -0.1314
    117  N        -14.8090   46.6300   43.6580 N.3   522  ARG522     -0.1245
    118  CA       -13.5030   46.3610   43.0800 C.3   522  ARG522      0.1563
    119  C        -12.8250   45.1430   43.7050 C.2   522  ARG522      0.2260
    120  O        -13.0340   44.8200   44.8850 O.2   522  ARG522     -0.2867
    121  CB       -12.5820   47.5870   43.2340 C.3   522  ARG522      0.0307
    122  CG       -13.1670   48.8900   42.6930 C.3   522  ARG522      0.0489
    123  CD       -12.2350   50.1000   42.9110 C.3   522  ARG522      0.2205
    124  NE       -12.7520   51.3230   42.2720 N.pl3 522  ARG522     -0.0865
    125  CZ       -13.6100   52.1770   42.8230 C.cat 522  ARG522      0.5346
    126  NH1      -14.0770   51.9900   44.0550 N.pl3 522  ARG522      0.1354
    127  NH2      -14.0360   53.2040   42.1200 N.pl3 522  ARG522      0.1354
    128  N          0.5510   58.6690   41.9700 N.3   592  SER592     -0.1202
    129  CA         0.3490   59.9250   41.2560 C.3   592  SER592      0.2020
    130  C          0.0760   61.0560   42.2360 C.2   592  SER592      0.2618
    131  O          0.9000   61.3290   43.1050 O.2   592  SER592     -0.2717
    132  CB        -0.8260   59.7510   40.2870 C.3   592  SER592      0.2103
    133  OG        -0.7820   60.6900   39.2370 O.3   592  SER592     -0.2182
    134  N         -1.0650   61.7260   42.1060 N.am  593  TYR593     -0.1975
    135  CA        -1.3840   62.7970   43.0450 C.3   593  TYR593      0.1639
    136  C         -1.3720   62.1690   44.4440 C.2   593  TYR593      0.2290
    137  O         -0.9720   62.8040   45.4220 O.2   593  TYR593     -0.2864
    138  CB        -2.7650   63.4040   42.7430 C.3   593  TYR593      0.0560
    139  CG        -2.9470   64.7960   43.3250 C.ar  593  TYR593     -0.0198
    140  CD1       -3.1240   64.9840   44.7000 C.ar  593  TYR593     -0.0009
    141  CD2       -2.8840   65.9300   42.5060 C.ar  593  TYR593     -0.0009
    142  CE1       -3.2310   66.2570   45.2490 C.ar  593  TYR593      0.0417
    143  CE2       -2.9890   67.2150   43.0430 C.ar  593  TYR593      0.0417
    144  CZ        -3.1670   67.3750   44.4170 C.ar  593  TYR593      0.1957
    145  OH        -3.3250   68.6430   44.9430 O.3   593  TYR593     -0.2866
    146  N          4.2750   63.4720   42.4410 N.3   618  VAL618     -0.1245
    147  CA         4.6440   64.8080   41.9980 C.3   618  VAL618      0.1561
    148  C          5.4080   65.2780   43.2470 C.2   618  VAL618      0.2260
    149  O          5.0310   64.8970   44.3570 O.2   618  VAL618     -0.2867
    150  CB         3.3860   65.6880   41.8000 C.3   618  VAL618      0.0252
    151  CG1        3.7540   67.1690   41.7150 C.3   618  VAL618      0.0019
    152  CG2        2.6630   65.2420   40.5340 C.3   618  VAL618      0.0019
    153  N          5.3180   71.3830   41.9860 N.3   621  TRP621     -0.1241
    154  CA         4.4440   71.7400   40.8930 C.3   621  TRP621      0.1605
    155  C          5.1080   72.3710   39.6750 C.2   621  TRP621      0.2264
    156  O          4.5560   72.3070   38.5760 O.2   621  TRP621     -0.2867
    157  CB         3.2600   72.5630   41.4350 C.3   621  TRP621      0.0550
    158  CG         2.3260   71.6750   42.2710 C.ar  621  TRP621      0.0003
    159  CD1        2.1580   71.7030   43.6340 C.ar  621  TRP621      0.0946
    160  CD2        1.5640   70.5400   41.8060 C.ar  621  TRP621      0.0152
    161  NE1        1.3560   70.6550   44.0420 N.ar  621  TRP621     -0.2442
    162  CE2        0.9810   69.9270   42.9460 C.ar  621  TRP621      0.0810
    163  CE3        1.3280   69.9780   40.5420 C.ar  621  TRP621      0.0012
    164  CZ2        0.1810   68.7800   42.8570 C.ar  621  TRP621      0.0191
    165  CZ3        0.5340   68.8400   40.4500 C.ar  621  TRP621      0.0001
    166  CH2       -0.0310   68.2510   41.6050 C.ar  621  TRP621      0.0015
    167  N          5.4510   69.7070   36.9530 N.3   624  TYR624     -0.1241
    168  CA         4.3270   69.1360   36.2290 C.3   624  TYR624      0.1605
    169  C          3.9120   70.0300   35.0640 C.2   624  TYR624      0.2264
    170  O          4.3340   71.1940   34.9940 O.2   624  TYR624     -0.2867
    171  CB         3.1410   68.8560   37.1710 C.3   624  TYR624      0.0534
    172  CG         2.2450   67.7890   36.6100 C.ar  624  TYR624     -0.0201
    173  CD1        2.7700   66.5490   36.2500 C.ar  624  TYR624     -0.0009
    174  CD2        0.9100   68.0590   36.3050 C.ar  624  TYR624     -0.0009
    175  CE1        2.0040   65.6060   35.5830 C.ar  624  TYR624      0.0417
    176  CE2        0.1200   67.1260   35.6380 C.ar  624  TYR624      0.0417
    177  CZ         0.6690   65.9070   35.2770 C.ar  624  TYR624      0.1957
    178  OH        -0.1070   64.9810   34.6130 O.3   624  TYR624     -0.2866
    179  N         -2.6160   71.3230   33.3700 N.3   628  TYR628     -0.1241
    180  CA        -3.1160   70.8080   34.6270 C.3   628  TYR628      0.1605
    181  C         -2.7360   71.6860   35.8110 C.2   628  TYR628      0.2264
    182  O         -3.6040   72.1670   36.5430 O.2   628  TYR628     -0.2867
    183  CB        -2.5920   69.3970   34.8740 C.3   628  TYR628      0.0534
    184  CG        -3.0890   68.8230   36.1810 C.ar  628  TYR628     -0.0201
    185  CD1       -2.4650   69.1340   37.3840 C.ar  628  TYR628     -0.0009
    186  CD2       -4.1890   67.9610   36.2100 C.ar  628  TYR628     -0.0009
    187  CE1       -2.9120   68.5980   38.5810 C.ar  628  TYR628      0.0417
    188  CE2       -4.6490   67.4170   37.4040 C.ar  628  TYR628      0.0417
    189  CZ        -4.0070   67.7340   38.5840 C.ar  628  TYR628      0.1957
    190  OH        -4.4300   67.1670   39.7650 O.3   628  TYR628     -0.2866
    191  N         -4.0830   75.3200   36.0910 N.3   631  ARG631     -0.1245
    192  CA        -5.5110   75.3330   36.2690 C.3   631  ARG631      0.1563
    193  C         -5.8700   75.5890   37.7300 C.2   631  ARG631      0.2260
    194  O         -6.8060   76.3220   38.0340 O.2   631  ARG631     -0.2867
    195  CB        -6.0950   73.9970   35.8210 C.3   631  ARG631      0.0307
    196  CG        -7.6070   73.9720   35.8160 C.3   631  ARG631      0.0489
    197  CD        -8.1090   73.0370   34.7490 C.3   631  ARG631      0.2205
    198  NE        -7.8140   71.6680   35.0960 N.pl3 631  ARG631     -0.0865
    199  CZ        -7.3130   70.7620   34.2680 C.cat 631  ARG631      0.5346
    200  NH1       -7.0270   71.0680   33.0030 N.pl3 631  ARG631      0.1354
    201  NH2       -7.1220   69.5280   34.7260 N.pl3 631  ARG631      0.1354
    202  N          4.7170   61.2480   32.0290 N.3   672  ASN672     -0.1225
    203  CA         3.7030   62.0910   32.6620 C.3   672  ASN672      0.1785
    204  C          4.2760   62.8330   33.8840 C.2   672  ASN672      0.2597
    205  O          4.4950   64.0400   33.8270 O.2   672  ASN672     -0.2718
    206  CB         2.5270   61.2000   33.0560 C.3   672  ASN672      0.1169
    207  CG         1.3000   61.9840   33.4280 C.2   672  ASN672      0.2627
    208  OD1        1.3750   63.1680   33.8080 O.2   672  ASN672     -0.2716
    209  ND2        0.1490   61.3300   33.3380 N.am  672  ASN672     -0.0877
    210  N          4.4580   62.1170   34.9940 N.am  673  VAL673     -0.1980
    211  CA         5.0910   62.6630   36.1920 C.3   673  VAL673      0.1595
    212  C          6.5250   62.1600   36.0220 C.2   673  VAL673      0.2287
    213  O          6.8210   60.9930   36.2560 O.2   673  VAL673     -0.2864
    214  CB         4.4710   62.0940   37.4720 C.3   673  VAL673      0.0276
    215  CG1        5.2610   62.5370   38.7120 C.3   673  VAL673      0.0022
    216  CG2        3.0380   62.5980   37.5910 C.3   673  VAL673      0.0022
    217  N          3.9910   55.9920   33.8110 N.3   702  HIS702     -0.1241
    218  CA         3.1600   56.3550   34.9540 C.3   702  HIS702      0.1621
    219  C          2.2370   55.2490   35.4830 C.2   702  HIS702      0.2264
    220  O          1.8930   55.2360   36.6720 O.2   702  HIS702     -0.2867
    221  CB         2.3230   57.5890   34.6250 C.3   702  HIS702      0.0745
    222  CG         1.8600   58.3310   35.8390 C.ar  702  HIS702      0.0817
    223  ND1        2.7120   58.6650   36.8690 N.ar  702  HIS702     -0.2268
    224  CD2        0.6460   58.8210   36.1800 C.ar  702  HIS702      0.1154
    225  CE1        2.0430   59.3320   37.7940 C.ar  702  HIS702      0.1986
    226  NE2        0.7860   59.4390   37.4010 N.ar  702  HIS702     -0.2212
@<TRIPOS>BOND
     1    15    14    2
     2    14    13    1
     3    16    13    1
     4    16    17    1
     5    13    12    1
     6    12     3   am
     7    17    18   ar
     8    17    19   ar
     9    43    42    2
    10    42    41    1
    11    18    20   ar
    12    19    21   ar
    13    40    41    1
    14     3     4    2
    15     3     2    1
    16    41    44    1
    17     1     2    1
    18    22    23    1
    19    20    21   ar
    20     2     5    1
    21    44    45    1
    22    64    63    1
    23    64    65    2
    24    23    26    1
    25    23    24    1
    26    67    65    1
    27     5     6    1
    28    63    62    1
    29     6     7    1
    30    65    66    1
    31    26    27    1
    32    31    24   am
    33    31    32    1
    34    24    25    2
    35    33    32    1
    36    33    34    2
    37    32    35    1
    38    29    28   ar
    39    62    61    1
    40     7     8    1
    41    61    58    1
    42    35    36    1
    43    27    28    1
    44    28    30   ar
    45     8     9    2
    46    36    37    1
    47    59    58    1
    48    59    60    2
    49    58    57    1
    50   202   203    1
    51     9    10    1
    52     9    11    1
    53    37    38   ar
    54    37    39   ar
    55   203   206    1
    56   203   204    1
    57    49    48    2
    58    57    48   am
    59   200   199    1
    60   206   207    1
    61    48    47    1
    62   209   207   am
    63   179   180    1
    64   207   208    2
    65   217   218    1
    66   205   204    2
    67   204   210   am
    68    50    47    1
    69    50    51    1
    70   199   201    1
    71   199   198    2
    72    47    46    1
    73   178   177    1
    74   221   218    1
    75   221   222    1
    76   180   183    1
    77   180   181    1
    78   197   198    1
    79   197   196    1
    80   183   184    1
    81   218   219    1
    82   210   211    1
    83   170   169    2
    84   169   168    1
    85   177   175   ar
    86   177   176   ar
    87    51    53   ar
    88    51    52   ar
    89   219   220    2
    90   175   173   ar
    91   176   174   ar
    92    53    55   ar
    93   181   182    2
    94   196   195    1
    95   195   192    1
    96   222   224   ar
    97   222   223   ar
    98    52    54   ar
    99   212   211    1
   100   212   213    2
   101   191   192    1
   102   224   226   ar
   103   184   186   ar
   104   184   185   ar
   105   211   214    1
   106   186   188   ar
   107   168   167    1
   108   168   171    1
   109   173   172   ar
   110   192   193    1
   111   174   172   ar
   112   172   171    1
   113   223   225   ar
   114    55    56   ar
   115    54    56   ar
   116   185   187   ar
   117   226   225   ar
   118   188   189   ar
   119   214   216    1
   120   214   215    1
   121   193   194    2
   122   156   155    2
   123   187   189   ar
   124   189   190    1
   125   133   132    1
   126   155   154    1
   127    92    91    1
   128    79    78    1
   129   132   129    1
   130    91    88    1
   131   165   163   ar
   132   165   166   ar
   133   152   150    1
   134   163   160   ar
   135    83    82    2
   136   154   157    1
   137   154   153    1
   138    90    89    2
   139    78    77   ar
   140    78    76   ar
   141   129   128    1
   142   129   130    1
   143    85    84    1
   144    85    86    1
   145   157   158    1
   146    77    75   ar
   147   166   164   ar
   148   151   150    1
   149    82    87   am
   150    82    81    1
   151    88    89    1
   152    88    87    1
   153    89    93   am
   154   150   147    1
   155   160   158   ar
   156   160   162   ar
   157    76    74   ar
   158    84    81    1
   159   147   146    1
   160   147   148    1
   161   134   130   am
   162   134   135    1
   163   127   125    1
   164   130   131    2
   165   158   159   ar
   166   124   125    2
   167   124   123    1
   168    86    80    1
   169   141   143   ar
   170   141   139   ar
   171    81    80    1
   172    75    73   ar
   173   122   123    1
   174   122   121    1
   175   138   135    1
   176   138   139    1
   177    93    94    1
   178   125   126    1
   179   164   162   ar
   180    94    97    1
   181    94    95    1
   182   162   161   ar
   183    74    73   ar
   184   143   144   ar
   185   135   136    1
   186   118   121    1
   187   118   117    1
   188   118   119    1
   189   106   105    2
   190   148   149    2
   191   139   140   ar
   192    73    72    1
   193    97    98    1
   194   159   161   ar
   195   119   120    2
   196    99    95   am
   197    99   100    1
   198   103   100    1
   199   103   104    1
   200    95    96    2
   201   102   101    2
   202   105   104    1
   203   105   107   am
   204   144   145    1
   205   144   142   ar
   206   136   137    2
   207   100   101    1
   208   140   142   ar
   209    72    69    1
   210   101   108   am
   211   114   113    1
   212   114   115    1
   213   116   115    1
   214    69    70    1
   215    69    68    1
   216   108   109    1
   217    70    71    2
   218   113   112    1
   219   109   112    1
   220   109   110    1
   221   110   111    2
