@<TRIPOS>MOLECULE
tmp/3c45B07.pdb
 219 215 0 0 0
SMALL
GASTEIGER

@<TRIPOS>ATOM
      1  N         -1.1560   58.1690   26.8630 N.3    87  ARG87      -0.1231
      2  CA        -2.3720   57.6160   27.4430 C.3    87  ARG87       0.1694
      3  C         -3.3920   57.1390   26.4250 C.2    87  ARG87       0.2592
      4  O         -4.0260   56.1050   26.6380 O.2    87  ARG87      -0.2718
      5  CB        -3.0370   58.6290   28.3850 C.3    87  ARG87       0.0321
      6  CG        -4.1700   58.0220   29.2050 C.3    87  ARG87       0.0489
      7  CD        -4.9100   59.0820   29.9950 C.3    87  ARG87       0.2205
      8  NE        -4.0570   59.7050   30.9990 N.pl3  87  ARG87      -0.0865
      9  CZ        -3.9580   59.2890   32.2590 C.cat  87  ARG87       0.5346
     10  NH1       -4.6560   58.2370   32.6750 N.pl3  87  ARG87       0.1354
     11  NH2       -3.1940   59.9450   33.1100 N.pl3  87  ARG87       0.1354
     12  N         -3.5530   57.8880   25.3360 N.am   88  HIS88      -0.1976
     13  CA        -4.5170   57.5540   24.2940 C.3    88  HIS88       0.1656
     14  C         -3.8810   57.3420   22.9240 C.2    88  HIS88       0.2291
     15  O         -4.4350   56.6370   22.0770 O.2    88  HIS88      -0.2864
     16  CB        -5.5440   58.6870   24.1540 C.3    88  HIS88       0.0771
     17  CG        -6.1660   59.1030   25.4480 C.ar   88  HIS88       0.0820
     18  ND1       -7.1170   58.3460   26.0900 N.ar   88  HIS88      -0.2267
     19  CD2       -5.9660   60.1980   26.2200 C.ar   88  HIS88       0.1154
     20  CE1       -7.4820   58.9580   27.2050 C.ar   88  HIS88       0.1986
     21  NE2       -6.7980   60.0820   27.3070 N.ar   88  HIS88      -0.2212
     22  N         -3.1650   64.6930   26.9200 N.3   167  GLU167     -0.1231
     23  CA        -3.3720   64.3810   28.3300 C.3   167  GLU167      0.1699
     24  C         -4.3220   65.2730   29.1160 C.2   167  GLU167      0.2592
     25  O         -5.1680   64.7740   29.8490 O.2   167  GLU167     -0.2718
     26  CB        -2.0190   64.3670   29.0520 C.3   167  GLU167      0.0402
     27  CG        -2.0860   64.2000   30.5730 C.3   167  GLU167      0.1161
     28  CD        -2.5260   62.8010   31.0030 C.2   167  GLU167      0.3649
     29  OE1       -2.6230   61.8990   30.1320 O.co2 167  GLU167     -0.2457
     30  OE2       -2.7580   62.6070   32.2220 O.co2 167  GLU167     -0.2457
     31  N         -4.2160   66.5860   28.9420 N.am  168  GLU168     -0.1979
     32  CA        -4.9900   67.5170   29.7600 C.3   168  GLU168      0.1602
     33  C         -6.1700   68.2910   29.1660 C.2   168  GLU168      0.2287
     34  O         -6.9220   68.9260   29.9020 O.2   168  GLU168     -0.2864
     35  CB        -4.0070   68.5280   30.3520 C.3   168  GLU168      0.0415
     36  CG        -2.7230   67.8880   30.8670 C.3   168  GLU168      0.1163
     37  CD        -2.9090   67.2080   32.2130 C.2   168  GLU168      0.3649
     38  OE1       -4.0530   66.8500   32.5500 O.co2 168  GLU168     -0.2457
     39  OE2       -1.9090   67.0200   32.9320 O.co2 168  GLU168     -0.2457
     40  N         -8.2400   64.6050   26.1980 N.3   171  SER171     -0.1217
     41  CA        -8.3190   63.2090   26.6370 C.3   171  SER171      0.1889
     42  C         -8.4280   62.3530   25.3880 C.2   171  SER171      0.2288
     43  O         -9.2010   61.4030   25.3320 O.2   171  SER171     -0.2866
     44  CB        -9.5520   62.9700   27.5160 C.3   171  SER171      0.2089
     45  OG        -9.4210   63.6260   28.7580 O.3   171  SER171     -0.2183
     46  N        -12.7080   69.8360   34.8280 N.3   319  PHE319     -0.1227
     47  CA       -11.3360   69.7590   34.3210 C.3   319  PHE319      0.1736
     48  C        -11.2090   70.6530   33.1020 C.2   319  PHE319      0.2595
     49  O        -10.1040   70.8780   32.5920 O.2   319  PHE319     -0.2718
     50  CB       -10.9690   68.3220   33.9400 C.3   319  PHE319      0.0547
     51  CG       -10.8260   67.4050   35.1190 C.ar  319  PHE319     -0.0202
     52  CD1       -9.6160   67.3080   35.8010 C.ar  319  PHE319     -0.0042
     53  CD2      -11.9270   66.6950   35.5950 C.ar  319  PHE319     -0.0042
     54  CE1       -9.4960   66.5180   36.9500 C.ar  319  PHE319     -0.0003
     55  CE2      -11.8250   65.8960   36.7490 C.ar  319  PHE319     -0.0003
     56  CZ       -10.6070   65.8110   37.4270 C.ar  319  PHE319     -0.0000
     57  N        -12.3540   71.1450   32.6330 N.am  320  ARG320     -0.1980
     58  CA       -12.4180   72.0330   31.4810 C.3   320  ARG320      0.1597
     59  C        -13.8790   72.3640   31.1980 C.2   320  ARG320      0.2287
     60  O        -14.7820   71.6800   31.6910 O.2   320  ARG320     -0.2864
     61  CB       -11.8000   71.3670   30.2550 C.3   320  ARG320      0.0334
     62  CG       -12.4600   70.0570   29.8850 C.3   320  ARG320      0.0492
     63  CD       -12.0940   69.6220   28.4830 C.3   320  ARG320      0.2205
     64  NE       -12.6690   68.3200   28.1940 N.pl3 320  ARG320     -0.0865
     65  CZ       -12.2360   67.1890   28.7390 C.cat 320  ARG320      0.5346
     66  NH1      -11.2180   67.2140   29.5870 N.pl3 320  ARG320      0.1354
     67  NH2      -12.8400   66.0390   28.4600 N.pl3 320  ARG320      0.1354
     68  N         -5.6700   59.5980   47.0660 N.3   509  TYR509     -0.1241
     69  CA        -5.4090   60.1920   45.7570 C.3   509  TYR509      0.1605
     70  C         -5.5580   61.6790   46.0860 C.2   509  TYR509      0.2264
     71  O         -4.5680   62.4030   46.1390 O.2   509  TYR509     -0.2867
     72  CB        -6.3890   59.7420   44.6640 C.3   509  TYR509      0.0534
     73  CG        -6.0110   60.3630   43.3370 C.ar  509  TYR509     -0.0201
     74  CD1       -6.6200   61.5330   42.9000 C.ar  509  TYR509     -0.0009
     75  CD2       -4.9410   59.8560   42.5850 C.ar  509  TYR509     -0.0009
     76  CE1       -6.1800   62.1940   41.7550 C.ar  509  TYR509      0.0417
     77  CE2       -4.4890   60.5080   41.4360 C.ar  509  TYR509      0.0417
     78  CZ        -5.1170   61.6790   41.0280 C.ar  509  TYR509      0.1957
     79  OH        -4.7090   62.3360   39.8890 O.3   509  TYR509     -0.2866
     80  N         -6.5970   64.4660   44.5490 N.3   511  GLY511     -0.1210
     81  CA        -6.3750   65.6020   43.6790 C.3   511  GLY511      0.1940
     82  C         -7.6940   66.3170   43.4380 C.2   511  GLY511      0.2454
     83  O         -8.7550   65.7920   43.7790 O.2   511  GLY511     -0.2732
     84  N         -7.6690   67.5090   42.8290 N.am  512  PRO512     -0.2717
     85  CA        -8.9020   68.2560   42.5670 C.3   512  PRO512      0.1535
     86  C         -9.9460   67.4990   41.7420 C.2   512  PRO512      0.2599
     87  O         -9.6510   66.9110   40.6930 O.2   512  PRO512     -0.2715
     88  CB        -8.3990   69.5480   41.9130 C.3   512  PRO512      0.0310
     89  CG        -7.0680   69.1840   41.3640 C.3   512  PRO512      0.0237
     90  CD        -6.4860   68.2630   42.3820 C.3   512  PRO512      0.0939
     91  N        -11.1710   67.5120   42.2630 N.am  513  CYS513     -0.1954
     92  CA       -12.3110   66.8270   41.6790 C.3   513  CYS513      0.1843
     93  C        -12.2280   65.3090   41.7820 C.2   513  CYS513      0.2626
     94  O        -12.9130   64.5960   41.0540 O.2   513  CYS513     -0.2714
     95  CB       -12.5080   67.2200   40.2180 C.3   513  CYS513      0.0997
     96  SG       -14.2770   67.0220   39.7500 S.3   513  CYS513     -0.0797
     97  N        -11.3830   64.8050   42.6720 N.am  514  SER514     -0.1936
     98  CA       -11.2690   63.3640   42.8430 C.3   514  SER514      0.2055
     99  C        -12.3860   62.8150   43.7500 C.2   514  SER514      0.2643
    100  O        -13.0420   63.5610   44.4900 O.2   514  SER514     -0.2714
    101  CB        -9.9050   62.9960   43.4420 C.3   514  SER514      0.2130
    102  OG        -9.7480   63.4620   44.7860 O.3   514  SER514     -0.2179
    103  N        -12.6170   61.5110   43.6540 N.am  515  GLN515     -0.1963
    104  CA       -13.6140   60.8310   44.4730 C.3   515  GLN515      0.1733
    105  C        -13.0900   59.4320   44.7560 C.2   515  GLN515      0.2616
    106  O        -13.0730   58.5900   43.8710 O.2   515  GLN515     -0.2715
    107  CB       -14.9720   60.7260   43.7550 C.3   515  GLN515      0.0408
    108  CG       -16.0460   60.0040   44.5910 C.3   515  GLN515      0.0908
    109  CD       -17.4620   60.2510   44.0830 C.2   515  GLN515      0.2608
    110  OE1      -17.9150   59.6120   43.1390 O.2   515  GLN515     -0.2717
    111  NE2      -18.1580   61.1990   44.7060 N.am  515  GLN515     -0.0878
    112  N        -12.6590   59.1900   45.9910 N.am  516  LYS516     -0.1977
    113  CA       -12.1440   57.8690   46.3630 C.3   516  LYS516      0.1596
    114  C        -13.1510   57.0910   47.2250 C.2   516  LYS516      0.2287
    115  O        -12.9190   55.9370   47.5720 O.2   516  LYS516     -0.2864
    116  CB       -10.8120   58.0110   47.1030 C.3   516  LYS516      0.0298
    117  CG        -9.6440   58.4440   46.2160 C.3   516  LYS516      0.0038
    118  CD        -9.0250   57.2670   45.4670 C.3   516  LYS516      0.0206
    119  CE        -8.2290   56.3690   46.4040 C.3   516  LYS516      0.1093
    120  NZ        -7.8380   55.0880   45.7330 N.3   516  LYS516     -0.1314
    121  N          0.6230   58.6680   42.0370 N.3   592  SER592     -0.1202
    122  CA         0.4310   59.9030   41.2960 C.3   592  SER592      0.2020
    123  C          0.1340   61.0750   42.2450 C.2   592  SER592      0.2618
    124  O          0.9550   61.3920   43.1050 O.2   592  SER592     -0.2717
    125  CB        -0.7220   59.6720   40.3070 C.3   592  SER592      0.2103
    126  OG        -0.7220   60.6110   39.2730 O.3   592  SER592     -0.2182
    127  N         -1.0140   61.7320   42.0890 N.am  593  TYR593     -0.1975
    128  CA        -1.3440   62.8420   42.9820 C.3   593  TYR593      0.1639
    129  C         -1.3640   62.2480   44.3850 C.2   593  TYR593      0.2290
    130  O         -0.9940   62.9020   45.3640 O.2   593  TYR593     -0.2864
    131  CB        -2.7100   63.4450   42.6370 C.3   593  TYR593      0.0560
    132  CG        -2.9090   64.8330   43.2140 C.ar  593  TYR593     -0.0198
    133  CD1       -3.1670   65.0180   44.5810 C.ar  593  TYR593     -0.0009
    134  CD2       -2.8040   65.9650   42.4030 C.ar  593  TYR593     -0.0009
    135  CE1       -3.3120   66.2910   45.1230 C.ar  593  TYR593      0.0417
    136  CE2       -2.9430   67.2500   42.9320 C.ar  593  TYR593      0.0417
    137  CZ        -3.1990   67.4090   44.3010 C.ar  593  TYR593      0.1957
    138  OH        -3.3300   68.6750   44.8510 O.3   593  TYR593     -0.2866
    139  N          4.2280   63.4840   42.4330 N.3   618  VAL618     -0.1245
    140  CA         4.6090   64.8170   42.0150 C.3   618  VAL618      0.1561
    141  C          5.3690   65.2750   43.2720 C.2   618  VAL618      0.2260
    142  O          5.0210   64.8630   44.3810 O.2   618  VAL618     -0.2867
    143  CB         3.3610   65.6920   41.7660 C.3   618  VAL618      0.0252
    144  CG1        3.7110   67.1780   41.7960 C.3   618  VAL618      0.0019
    145  CG2        2.7760   65.3470   40.4210 C.3   618  VAL618      0.0019
    146  N          5.3350   71.4210   42.0670 N.3   621  TRP621     -0.1241
    147  CA         4.4550   71.7690   40.9640 C.3   621  TRP621      0.1605
    148  C          5.0970   72.3530   39.7100 C.2   621  TRP621      0.2264
    149  O          4.5750   72.1560   38.6130 O.2   621  TRP621     -0.2867
    150  CB         3.3080   72.6400   41.4870 C.3   621  TRP621      0.0550
    151  CG         2.3650   71.7650   42.2840 C.ar  621  TRP621      0.0003
    152  CD1        2.1650   71.7810   43.6380 C.ar  621  TRP621      0.0946
    153  CD2        1.6060   70.6510   41.7820 C.ar  621  TRP621      0.0152
    154  NE1        1.3420   70.7430   44.0090 N.ar  621  TRP621     -0.2442
    155  CE2        0.9850   70.0330   42.8930 C.ar  621  TRP621      0.0810
    156  CE3        1.3990   70.1120   40.4990 C.ar  621  TRP621      0.0012
    157  CZ2        0.1650   68.8950   42.7660 C.ar  621  TRP621      0.0191
    158  CZ3        0.5830   68.9790   40.3660 C.ar  621  TRP621      0.0001
    159  CH2       -0.0230   68.3830   41.5010 C.ar  621  TRP621      0.0015
    160  N          5.4720   69.7610   36.9860 N.3   624  TYR624     -0.1241
    161  CA         4.3350   69.1780   36.2640 C.3   624  TYR624      0.1605
    162  C          3.8960   70.0470   35.0840 C.2   624  TYR624      0.2264
    163  O          4.3740   71.1790   34.9400 O.2   624  TYR624     -0.2867
    164  CB         3.1550   68.9060   37.1960 C.3   624  TYR624      0.0534
    165  CG         2.2540   67.8610   36.6060 C.ar  624  TYR624     -0.0201
    166  CD1        2.7630   66.6070   36.2610 C.ar  624  TYR624     -0.0009
    167  CD2        0.9220   68.1470   36.3030 C.ar  624  TYR624     -0.0009
    168  CE1        1.9730   65.6630   35.6200 C.ar  624  TYR624      0.0417
    169  CE2        0.1200   67.2170   35.6620 C.ar  624  TYR624      0.0417
    170  CZ         0.6440   65.9840   35.3200 C.ar  624  TYR624      0.1957
    171  OH        -0.1430   65.0820   34.6360 O.3   624  TYR624     -0.2866
    172  N         -2.5370   71.4020   33.4220 N.3   628  TYR628     -0.1241
    173  CA        -3.1000   70.8850   34.6610 C.3   628  TYR628      0.1605
    174  C         -2.7230   71.7470   35.8630 C.2   628  TYR628      0.2264
    175  O         -3.5880   72.2110   36.6070 O.2   628  TYR628     -0.2867
    176  CB        -2.6450   69.4410   34.9200 C.3   628  TYR628      0.0534
    177  CG        -3.1720   68.8670   36.2330 C.ar  628  TYR628     -0.0201
    178  CD1       -2.5340   69.1400   37.4490 C.ar  628  TYR628     -0.0009
    179  CD2       -4.3060   68.0510   36.2560 C.ar  628  TYR628     -0.0009
    180  CE1       -3.0110   68.6070   38.6480 C.ar  628  TYR628      0.0417
    181  CE2       -4.7970   67.5140   37.4540 C.ar  628  TYR628      0.0417
    182  CZ        -4.1400   67.7920   38.6410 C.ar  628  TYR628      0.1957
    183  OH        -4.5740   67.2140   39.8090 O.3   628  TYR628     -0.2866
    184  N         -4.1630   75.3580   36.0990 N.3   631  ARG631     -0.1245
    185  CA        -5.6000   75.4010   36.2790 C.3   631  ARG631      0.1563
    186  C         -5.9330   75.6800   37.7430 C.2   631  ARG631      0.2260
    187  O         -6.8550   76.4370   38.0590 O.2   631  ARG631     -0.2867
    188  CB        -6.2060   74.0690   35.8600 C.3   631  ARG631      0.0307
    189  CG        -7.7190   74.0600   35.8770 C.3   631  ARG631      0.0489
    190  CD        -8.1880   73.1310   34.7750 C.3   631  ARG631      0.2205
    191  NE        -7.8120   71.7850   35.1050 N.pl3 631  ARG631     -0.0865
    192  CZ        -7.3690   70.8640   34.2600 C.cat 631  ARG631      0.5346
    193  NH1       -7.2160   71.1110   32.9580 N.pl3 631  ARG631      0.1354
    194  NH2       -7.0980   69.6690   34.7500 N.pl3 631  ARG631      0.1354
    195  N          4.7260   61.3140   32.0300 N.3   672  ASN672     -0.1225
    196  CA         3.7110   62.1620   32.6790 C.3   672  ASN672      0.1785
    197  C          4.2730   62.8980   33.9060 C.2   672  ASN672      0.2597
    198  O          4.4710   64.1050   33.8660 O.2   672  ASN672     -0.2718
    199  CB         2.5030   61.2830   33.0520 C.3   672  ASN672      0.1169
    200  CG         1.2410   62.0860   33.2690 C.2   672  ASN672      0.2627
    201  OD1        1.2860   63.2270   33.7590 O.2   672  ASN672     -0.2716
    202  ND2        0.1000   61.4940   32.9270 N.am  672  ASN672     -0.0877
    203  N          4.4820   62.1700   35.0010 N.am  673  VAL673     -0.1980
    204  CA         5.1150   62.7100   36.2100 C.3   673  VAL673      0.1595
    205  C          6.5500   62.2130   36.0130 C.2   673  VAL673      0.2287
    206  O          6.8440   61.0380   36.2180 O.2   673  VAL673     -0.2864
    207  CB         4.5140   62.0840   37.4720 C.3   673  VAL673      0.0276
    208  CG1        5.2990   62.5330   38.7380 C.3   673  VAL673      0.0022
    209  CG2        3.0290   62.4860   37.5670 C.3   673  VAL673      0.0022
    210  N          3.9860   56.0340   33.7650 N.3   702  HIS702     -0.1241
    211  CA         3.1430   56.4100   34.8870 C.3   702  HIS702      0.1621
    212  C          2.2180   55.3090   35.4010 C.2   702  HIS702      0.2264
    213  O          1.8370   55.3160   36.5730 O.2   702  HIS702     -0.2867
    214  CB         2.3170   57.6530   34.5520 C.3   702  HIS702      0.0745
    215  CG         1.8400   58.3910   35.7670 C.ar  702  HIS702      0.0817
    216  ND1        2.6820   58.7280   36.8020 N.ar  702  HIS702     -0.2268
    217  CD2        0.6120   58.8450   36.1160 C.ar  702  HIS702      0.1154
    218  CE1        1.9950   59.3580   37.7410 C.ar  702  HIS702      0.1986
    219  NE2        0.7380   59.4410   37.3490 N.ar  702  HIS702     -0.2212
@<TRIPOS>BOND
     1    15    14    2
     2    14    13    1
     3    16    13    1
     4    16    17    1
     5    13    12    1
     6    43    42    2
     7    12     3   am
     8    42    41    1
     9    17    18   ar
    10    17    19   ar
    11    18    20   ar
    12    40    41    1
    13    19    21   ar
    14     3     4    2
    15     3     2    1
    16    41    44    1
    17     1     2    1
    18    22    23    1
    19    20    21   ar
    20     2     5    1
    21    44    45    1
    22    64    63    1
    23    64    65    2
    24    23    26    1
    25    23    24    1
    26     5     6    1
    27    67    65    1
    28    63    62    1
    29    65    66    1
    30    31    24   am
    31    31    32    1
    32    26    27    1
    33    24    25    2
    34    33    32    1
    35    33    34    2
    36     6     7    1
    37    32    35    1
    38    62    61    1
    39     7     8    1
    40    29    28   ar
    41    61    58    1
    42    35    36    1
    43    27    28    1
    44    36    37    1
    45     8     9    2
    46    28    30   ar
    47    59    58    1
    48    59    60    2
    49    58    57    1
    50   195   196    1
    51    37    38   ar
    52    37    39   ar
    53     9    10    1
    54     9    11    1
    55    49    48    2
    56    57    48   am
    57   196   199    1
    58   196   197    1
    59   202   200   am
    60   193   192    1
    61   199   200    1
    62    48    47    1
    63   200   201    2
    64   172   173    1
    65   210   211    1
    66   198   197    2
    67   197   203   am
    68    50    47    1
    69    50    51    1
    70   192   194    1
    71   192   191    2
    72    47    46    1
    73   214   211    1
    74   214   215    1
    75   171   170    1
    76   173   176    1
    77   173   174    1
    78   190   191    1
    79   190   189    1
    80   211   212    1
    81   176   177    1
    82   163   162    2
    83   203   204    1
    84   162   161    1
    85    51    53   ar
    86    51    52   ar
    87   170   168   ar
    88   170   169   ar
    89   212   213    2
    90    53    55   ar
    91   168   166   ar
    92   169   167   ar
    93   215   217   ar
    94   215   216   ar
    95    52    54   ar
    96   188   189    1
    97   188   185    1
    98   174   175    2
    99   205   204    1
   100   205   206    2
   101   184   185    1
   102   217   219   ar
   103   204   207    1
   104   177   179   ar
   105   177   178   ar
   106   179   181   ar
   107   166   165   ar
   108   161   160    1
   109   161   164    1
   110   185   186    1
   111   167   165   ar
   112   165   164    1
   113    55    56   ar
   114   216   218   ar
   115    54    56   ar
   116   219   218   ar
   117   178   180   ar
   118   181   182   ar
   119   207   209    1
   120   207   208    1
   121   186   187    2
   122   149   148    2
   123   182   180   ar
   124   182   183    1
   125   126   125    1
   126   148   147    1
   127    96    95    1
   128    79    78    1
   129    95    92    1
   130   125   122    1
   131   158   156   ar
   132   158   159   ar
   133   145   143    1
   134   156   153   ar
   135    87    86    2
   136   147   150    1
   137   147   146    1
   138    78    77   ar
   139    78    76   ar
   140    94    93    2
   141   122   121    1
   142   122   123    1
   143    89    88    1
   144    89    90    1
   145    77    75   ar
   146   150   151    1
   147   159   157   ar
   148    92    93    1
   149    92    91    1
   150    86    91   am
   151    86    85    1
   152    76    74   ar
   153   143   144    1
   154   143   140    1
   155   153   151   ar
   156   153   155   ar
   157    93    97   am
   158    88    85    1
   159   140   139    1
   160   140   141    1
   161   127   123   am
   162   127   128    1
   163   123   124    2
   164   151   152   ar
   165    90    84    1
   166   134   136   ar
   167   134   132   ar
   168    85    84    1
   169    75    73   ar
   170   131   128    1
   171   131   132    1
   172    97    98    1
   173   157   155   ar
   174    84    82   am
   175    98   101    1
   176    98    99    1
   177   155   154   ar
   178    74    73   ar
   179   136   137   ar
   180   128   129    1
   181   110   109    2
   182   132   133   ar
   183   141   142    2
   184    73    72    1
   185    82    81    1
   186    82    83    2
   187   101   102    1
   188   152   154   ar
   189   103    99   am
   190   103   104    1
   191    81    80    1
   192    99   100    2
   193   107   104    1
   194   107   108    1
   195   106   105    2
   196   109   108    1
   197   109   111   am
   198   137   138    1
   199   137   135   ar
   200   129   130    2
   201   104   105    1
   202   133   135   ar
   203    72    69    1
   204   105   112   am
   205   118   117    1
   206   118   119    1
   207   120   119    1
   208    69    70    1
   209    69    68    1
   210   112   113    1
   211    70    71    2
   212   117   116    1
   213   113   116    1
   214   113   114    1
   215   114   115    2
