@<TRIPOS>MOLECULE
tmp/3c49A00.pdb
 167 158 0 0 0
SMALL
GASTEIGER

@<TRIPOS>ATOM
      1  N         29.2880   -5.4030   17.2940 N.3   109  ASP109     -0.1239
      2  CA        27.9550   -4.8190   17.2310 C.3   109  ASP109      0.1674
      3  C         27.8970   -3.5410   18.0540 C.2   109  ASP109      0.2266
      4  O         27.4830   -2.4900   17.5650 O.2   109  ASP109     -0.2867
      5  CB        26.9080   -5.8110   17.7430 C.3   109  ASP109      0.1410
      6  CG        26.6780   -6.9640   16.7870 C.2   109  ASP109      0.3668
      7  OD1       27.2790   -6.9620   15.6900 O.co2 109  ASP109     -0.2456
      8  OD2       25.8910   -7.8720   17.1350 O.co2 109  ASP109     -0.2456
      9  N         29.7640   -0.7060   16.6220 N.3   112  LEU112     -0.1245
     10  CA        29.0410   -0.1630   15.4760 C.3   112  LEU112      0.1561
     11  C         27.9160    0.7610   15.9170 C.2   112  LEU112      0.2260
     12  O         27.6700    1.7950   15.2960 O.2   112  LEU112     -0.2867
     13  CB        28.4860   -1.2880   14.6020 C.3   112  LEU112      0.0270
     14  CG        29.4990   -1.9940   13.6970 C.3   112  LEU112      0.0019
     15  CD1       28.8650   -3.1860   12.9940 C.3   112  LEU112      0.0001
     16  CD2       30.0880   -1.0220   12.6850 C.3   112  LEU112      0.0001
     17  N         27.4360    5.1260   15.6920 N.3   116  ASP116     -0.1239
     18  CA        26.3220    5.9390   15.2110 C.3   116  ASP116      0.1674
     19  C         25.8280    6.9200   16.2650 C.2   116  ASP116      0.2266
     20  O         25.1520    7.8950   15.9440 O.2   116  ASP116     -0.2867
     21  CB        25.1720    5.0590   14.7140 C.3   116  ASP116      0.1410
     22  CG        25.4000    4.5480   13.3020 C.2   116  ASP116      0.3668
     23  OD1       26.2530    5.1240   12.5880 O.co2 116  ASP116     -0.2456
     24  OD2       24.7270    3.5740   12.9030 O.co2 116  ASP116     -0.2456
     25  N         12.5410   -2.8790    8.9470 N.3   209  HIS209     -0.1226
     26  CA        13.8810   -2.8590    9.5230 C.3   209  HIS209      0.1752
     27  C         13.8530   -2.3250   10.9530 C.2   209  HIS209      0.2596
     28  O         13.7710   -1.1180   11.1770 O.2   209  HIS209     -0.2718
     29  CB        14.8570   -2.0560    8.6590 C.3   209  HIS209      0.0759
     30  CG        16.2840   -2.1920    9.0890 C.ar  209  HIS209      0.0818
     31  ND1       17.0270   -3.3280    8.8490 N.ar  209  HIS209     -0.2268
     32  CD2       17.1020   -1.3430    9.7540 C.ar  209  HIS209      0.1154
     33  CE1       18.2420   -3.1710    9.3450 C.ar  209  HIS209      0.1986
     34  NE2       18.3130   -1.9750    9.8990 N.ar  209  HIS209     -0.2212
     35  N         13.9160   -3.2420   11.9140 N.am  210  GLY210     -0.1957
     36  CA        13.9170   -2.8920   13.3210 C.3   210  GLY210      0.1869
     37  C         15.2700   -2.3910   13.7820 C.2   210  GLY210      0.2309
     38  O         16.3090   -2.9050   13.3740 O.2   210  GLY210     -0.2863
     39  N         20.6660    6.9260   10.8720 N.3   219  ILE219     -0.1245
     40  CA        20.0440    6.3820    9.6640 C.3   219  ILE219      0.1561
     41  C         19.2630    7.4410    8.8940 C.2   219  ILE219      0.2260
     42  O         19.3010    7.4780    7.6670 O.2   219  ILE219     -0.2867
     43  CB        19.1090    5.1960    9.9640 C.3   219  ILE219      0.0252
     44  CG1       19.8960    4.0260   10.5470 C.3   219  ILE219      0.0019
     45  CG2       18.3970    4.7570    8.6970 C.3   219  ILE219      0.0019
     46  CD1       19.0430    2.8170   10.8460 C.3   219  ILE219      0.0001
     47  N         20.6160    3.5650    5.3280 N.3   224  LEU224     -0.1231
     48  CA        21.1120    2.2530    5.7170 C.3   224  LEU224      0.1693
     49  C         22.4440    1.9630    5.0400 C.2   224  LEU224      0.2591
     50  O         22.6130    2.2070    3.8430 O.2   224  LEU224     -0.2718
     51  CB        20.0860    1.1680    5.3960 C.3   224  LEU224      0.0284
     52  CG        18.8320    1.2440    6.2680 C.3   224  LEU224      0.0019
     53  CD1       17.8260    0.1750    5.8770 C.3   224  LEU224      0.0001
     54  CD2       19.2010    1.1240    7.7360 C.3   224  LEU224      0.0001
     55  N         23.3860    1.4440    5.8190 N.am  225  ARG225     -0.1980
     56  CA        24.7610    1.2930    5.3610 C.3   225  ARG225      0.1597
     57  C         25.3020   -0.0980    5.6490 C.2   225  ARG225      0.2287
     58  O         25.1180   -0.6350    6.7380 O.2   225  ARG225     -0.2864
     59  CB        25.6570    2.3270    6.0440 C.3   225  ARG225      0.0334
     60  CG        25.3120    3.7710    5.7350 C.3   225  ARG225      0.0492
     61  CD        25.5560    4.6440    6.9560 C.3   225  ARG225      0.2205
     62  NE        24.4370    4.5640    7.8920 N.pl3 225  ARG225     -0.0865
     63  CZ        24.5390    4.7200    9.2100 C.cat 225  ARG225      0.5346
     64  NH1       25.7210    4.9520    9.7690 N.pl3 225  ARG225      0.1354
     65  NH2       23.4560    4.6290    9.9720 N.pl3 225  ARG225      0.1354
     66  N         28.0430   -1.9240    6.8770 N.3   227  MET227     -0.1245
     67  CA        29.1920   -1.5700    7.7000 C.3   227  MET227      0.1570
     68  C         30.2310   -2.6820    7.7610 C.2   227  MET227      0.2261
     69  O         29.8890   -3.8650    7.7440 O.2   227  MET227     -0.2867
     70  CB        28.7410   -1.2100    9.1190 C.3   227  MET227      0.0387
     71  CG        27.8890    0.0460    9.2080 C.3   227  MET227      0.0595
     72  SD        28.7000    1.4930    8.4950 S.3   227  MET227     -0.1393
     73  CE        30.1180    1.6700    9.5800 C.3   227  MET227      0.0692
     74  N         30.3250   -5.9500   10.4840 N.3   230  SER230     -0.1202
     75  CA        28.9620   -6.3880   10.7550 C.3   230  SER230      0.2020
     76  C         28.6990   -7.7440   10.1150 C.2   230  SER230      0.2619
     77  O         28.8040   -7.9000    8.9010 O.2   230  SER230     -0.2717
     78  CB        27.9460   -5.3620   10.2500 C.3   230  SER230      0.2103
     79  OG        27.9840   -5.2590    8.8390 O.3   230  SER230     -0.2182
     80  N         28.3630   -8.7270   10.9410 N.am  231  GLY231     -0.1942
     81  CA        28.0620  -10.0580   10.4520 C.3   231  GLY231      0.2014
     82  C         26.6470  -10.4720   10.7950 C.2   231  GLY231      0.2639
     83  O         25.9570   -9.7910   11.5520 O.2   231  GLY231     -0.2714
     84  N         26.2130  -11.5950   10.2350 N.am  232  GLY232     -0.1954
     85  CA        24.8820  -12.1090   10.4950 C.3   232  GLY232      0.1869
     86  C         24.7090  -13.5160    9.9640 C.2   232  GLY232      0.2309
     87  O         25.6480  -14.1080    9.4340 O.2   232  GLY232     -0.2863
     88  N         25.3870  -13.2920    6.2320 N.3   235  GLY235     -0.1225
     89  CA        26.5610  -12.5720    5.7750 C.3   235  GLY235      0.1811
     90  C         26.5100  -11.0660    5.9630 C.2   235  GLY235      0.2280
     91  O         25.7700  -10.5500    6.7990 O.2   235  GLY235     -0.2866
     92  N         25.4740   -7.7440    4.7870 N.3   237  GLY237     -0.1210
     93  CA        24.6010   -6.9070    3.9850 C.3   237  GLY237      0.1956
     94  C         23.5980   -6.1350    4.8230 C.2   237  GLY237      0.2612
     95  O         23.7770   -5.9710    6.0270 O.2   237  GLY237     -0.2717
     96  N         22.5420   -5.6500    4.1820 N.am  238  ILE238     -0.1965
     97  CA        21.4780   -4.9530    4.8900 C.3   238  ILE238      0.1727
     98  C         20.2830   -5.8860    5.0490 C.2   238  ILE238      0.2616
     99  O         19.7600   -6.4110    4.0670 O.2   238  ILE238     -0.2715
    100  CB        21.0610   -3.6630    4.1600 C.3   238  ILE238      0.0290
    101  CG1       22.2970   -2.8260    3.8180 C.3   238  ILE238      0.0022
    102  CG2       20.0970   -2.8620    5.0130 C.3   238  ILE238      0.0023
    103  CD1       22.0040   -1.6130    2.9730 C.3   238  ILE238      0.0001
    104  N         19.8670   -6.0960    6.2940 N.am  239  TYR239     -0.1960
    105  CA        18.8290   -7.0720    6.6110 C.3   239  TYR239      0.1771
    106  C         17.4260   -6.4650    6.6720 C.2   239  TYR239      0.2620
    107  O         17.2270   -5.3800    7.2180 O.2   239  TYR239     -0.2715
    108  CB        19.1360   -7.7490    7.9460 C.3   239  TYR239      0.0574
    109  CG        20.2910   -8.7210    7.9070 C.ar  239  TYR239     -0.0198
    110  CD1       20.0780  -10.0820    8.0700 C.ar  239  TYR239     -0.0009
    111  CD2       21.5950   -8.2780    7.7140 C.ar  239  TYR239     -0.0009
    112  CE1       21.1260  -10.9750    8.0410 C.ar  239  TYR239      0.0417
    113  CE2       22.6500   -9.1660    7.6820 C.ar  239  TYR239      0.0417
    114  CZ        22.4080  -10.5150    7.8470 C.ar  239  TYR239      0.1957
    115  OH        23.4500  -11.4130    7.8180 O.3   239  TYR239     -0.2866
    116  N         16.4570   -7.1850    6.1170 N.am  240  PHE240     -0.1960
    117  CA        15.0610   -6.7750    6.1800 C.3   240  PHE240      0.1771
    118  C         14.1770   -7.9680    6.5050 C.2   240  PHE240      0.2619
    119  O         14.5420   -9.1100    6.2380 O.2   240  PHE240     -0.2715
    120  CB        14.6200   -6.1540    4.8580 C.3   240  PHE240      0.0574
    121  CG        15.3200   -4.8730    4.5290 C.ar  240  PHE240     -0.0200
    122  CD1       14.7230   -3.6550    4.7910 C.ar  240  PHE240     -0.0042
    123  CD2       16.5780   -4.8860    3.9580 C.ar  240  PHE240     -0.0042
    124  CE1       15.3700   -2.4740    4.4870 C.ar  240  PHE240     -0.0003
    125  CE2       17.2260   -3.7110    3.6520 C.ar  240  PHE240     -0.0003
    126  CZ        16.6240   -2.5050    3.9180 C.ar  240  PHE240     -0.0000
    127  N         13.0170   -7.6950    7.0900 N.am  241  ALA241     -0.1977
    128  CA        12.0480   -8.7390    7.3870 C.3   241  ALA241      0.1597
    129  C         10.6980   -8.3960    6.7730 C.2   241  ALA241      0.2287
    130  O         10.3360   -7.2250    6.6640 O.2   241  ALA241     -0.2864
    131  CB        11.9170   -8.9230    8.8810 C.3   241  ALA241      0.0319
    132  N          9.5190  -10.0430   13.4320 N.3   246  LYS246     -0.1231
    133  CA        10.9370  -10.3600   13.3190 C.3   246  LYS246      0.1693
    134  C         11.7960   -9.1220   13.5790 C.2   246  LYS246      0.2592
    135  O         12.7550   -9.1740   14.3460 O.2   246  LYS246     -0.2718
    136  CB        11.2440  -10.9490   11.9390 C.3   246  LYS246      0.0285
    137  CG        12.7310  -11.0800   11.6170 C.3   246  LYS246      0.0035
    138  CD        13.4290  -12.1240   12.4790 C.3   246  LYS246      0.0206
    139  CE        14.8370  -12.3980   11.9550 C.3   246  LYS246      0.1093
    140  NZ        15.6700  -13.2040   12.8890 N.3   246  LYS246     -0.1314
    141  N         11.4390   -8.0100   12.9440 N.am  247  SER247     -0.1952
    142  CA        12.1850   -6.7650   13.0870 C.3   247  SER247      0.1924
    143  C         12.0270   -6.1330   14.4670 C.2   247  SER247      0.2314
    144  O         12.9550   -5.5150   14.9800 O.2   247  SER247     -0.2863
    145  CB        11.7710   -5.7640   12.0060 C.3   247  SER247      0.2116
    146  OG        12.3990   -6.0550   10.7720 O.3   247  SER247     -0.2180
    147  N         14.4040   -6.5060   17.3770 N.3   250  TYR250     -0.1241
    148  CA        15.6260   -5.7090   17.4200 C.3   250  TYR250      0.1605
    149  C         15.3500   -4.2640   17.8330 C.2   250  TYR250      0.2264
    150  O         16.2500   -3.4260   17.8120 O.2   250  TYR250     -0.2867
    151  CB        16.3340   -5.7350   16.0620 C.3   250  TYR250      0.0534
    152  CG        16.5250   -7.1240   15.4980 C.ar  250  TYR250     -0.0201
    153  CD1       17.7000   -7.8340   15.7240 C.ar  250  TYR250     -0.0009
    154  CD2       15.5290   -7.7270   14.7410 C.ar  250  TYR250     -0.0009
    155  CE1       17.8770   -9.1060   15.2100 C.ar  250  TYR250      0.0417
    156  CE2       15.6950   -8.9990   14.2230 C.ar  250  TYR250      0.0417
    157  CZ        16.8690   -9.6850   14.4590 C.ar  250  TYR250      0.1957
    158  OH        17.0330  -10.9520   13.9420 O.3   250  TYR250     -0.2866
    159  N         14.5120  -13.6730    6.1830 N.3   339  GLU339     -0.1245
    160  CA        15.4730  -12.5820    6.2950 C.3   339  GLU339      0.1567
    161  C         15.9380  -12.1760    4.9030 C.2   339  GLU339      0.2260
    162  O         16.6420  -12.9290    4.2320 O.2   339  GLU339     -0.2867
    163  CB        16.6660  -12.9830    7.1690 C.3   339  GLU339      0.0388
    164  CG        16.3500  -12.9930    8.6550 C.3   339  GLU339      0.1160
    165  CD        17.4870  -13.5170    9.5110 C.2   339  GLU339      0.3649
    166  OE1       18.6620  -13.2180    9.2070 O.co2 339  GLU339     -0.2457
    167  OE2       17.1980  -14.2200   10.5030 O.co2 339  GLU339     -0.2457
@<TRIPOS>BOND
     1   103   101    1
     2   125   126   ar
     3   125   123   ar
     4   101   100    1
     5    50    49    2
     6   126   124   ar
     7   123   121   ar
     8    93    92    1
     9    93    94    1
    10    99    98    2
    11   100    97    1
    12   100   102    1
    13    96    94   am
    14    96    97    1
    15   162   161    2
    16   124   122   ar
    17   121   122   ar
    18   121   120    1
    19    94    95    2
    20   120   117    1
    21    97    98    1
    22   161   160    1
    23    49    48    1
    24    49    55   am
    25    98   104   am
    26    47    48    1
    27    56    57    1
    28    56    55    1
    29    56    59    1
    30    51    48    1
    31    51    52    1
    32    57    58    2
    33    60    59    1
    34    60    61    1
    35    89    90    1
    36    89    88    1
    37    53    52    1
    38    90    91    2
    39   116   117    1
    40   116   106   am
    41   117   118    1
    42   159   160    1
    43   119   118    2
    44    52    54    1
    45   104   105    1
    46   160   163    1
    47   118   127   am
    48   105   106    1
    49   105   108    1
    50   130   129    2
    51   106   107    2
    52   129   128    1
    53    66    67    1
    54    61    62    1
    55   127   128    1
    56   163   164    1
    57   128   131    1
    58    42    41    2
    59   113   111   ar
    60   113   114   ar
    61    67    68    1
    62    67    70    1
    63   111   109   ar
    64    69    68    2
    65   115   114    1
    66   114   112   ar
    67    62    63    2
    68   109   108    1
    69   109   110   ar
    70   112   110   ar
    71    72    71    1
    72    72    73    1
    73   164   165    1
    74    29    30    1
    75    29    26    1
    76    45    43    1
    77    79    78    1
    78    31    30   ar
    79    31    33   ar
    80    41    40    1
    81    77    76    2
    82    25    26    1
    83    30    32   ar
    84    70    71    1
    85   166   165   ar
    86    63    64    1
    87    63    65    1
    88    33    34   ar
    89    87    86    2
    90   165   167   ar
    91    26    27    1
    92    40    43    1
    93    40    39    1
    94    32    34   ar
    95    86    85    1
    96    43    44    1
    97    76    75    1
    98    76    80   am
    99    84    85    1
   100    84    82   am
   101    78    75    1
   102    81    82    1
   103    81    80    1
   104    74    75    1
   105    44    46    1
   106   146   145    1
   107    82    83    2
   108    27    28    2
   109    27    35   am
   110   137   136    1
   111   137   138    1
   112    35    36    1
   113   136   133    1
   114   139   138    1
   115   139   140    1
   116   145   142    1
   117    23    22   ar
   118    16    14    1
   119    24    22   ar
   120   141   142    1
   121   141   134   am
   122    15    14    1
   123   142   143    1
   124    22    21    1
   125   133   132    1
   126   133   134    1
   127    36    37    1
   128    38    37    2
   129   134   135    2
   130    14    13    1
   131   158   157    1
   132   156   157   ar
   133   156   154   ar
   134   157   155   ar
   135   143   144    2
   136    13    10    1
   137    21    18    1
   138   154   152   ar
   139   155   153   ar
   140    18    17    1
   141    18    19    1
   142    12    11    2
   143    10    11    1
   144    10     9    1
   145   152   153   ar
   146   152   151    1
   147     7     6   ar
   148    20    19    2
   149   151   148    1
   150     6     8   ar
   151     6     5    1
   152     2     1    1
   153     2     5    1
   154     2     3    1
   155   147   148    1
   156   148   149    1
   157     4     3    2
   158   150   149    2
