@<TRIPOS>MOLECULE
tmp/3c4eC00.pdb
 131 121 0 0 0
SMALL
GASTEIGER

@<TRIPOS>ATOM
      1  N        -24.5570   34.9100   34.5870 N.3    11  LEU11      -0.1245
      2  CA       -23.7210   36.0140   34.1210 C.3    11  LEU11       0.1561
      3  C        -22.4600   35.5240   33.4030 C.2    11  LEU11       0.2260
      4  O        -21.9220   36.2080   32.5200 O.2    11  LEU11      -0.2867
      5  CB       -23.3060   36.9140   35.2880 C.3    11  LEU11       0.0270
      6  CG       -24.4000   37.6330   36.0830 C.3    11  LEU11       0.0019
      7  CD1      -23.8090   38.2550   37.3530 C.3    11  LEU11       0.0001
      8  CD2      -25.0720   38.6860   35.2300 C.3    11  LEU11       0.0001
      9  N        -13.5970   29.3730   36.7240 N.3    16  PHE16      -0.1241
     10  CA       -14.0710   29.8500   38.0290 C.3    16  PHE16       0.1605
     11  C        -15.4250   29.2400   38.4660 C.2    16  PHE16       0.2264
     12  O        -15.8790   29.4750   39.5940 O.2    16  PHE16      -0.2867
     13  CB       -14.1840   31.3810   37.9940 C.3    16  PHE16       0.0534
     14  CG       -15.0020   31.9090   36.8310 C.ar   16  PHE16      -0.0203
     15  CD1      -16.3980   32.0000   36.9200 C.ar   16  PHE16      -0.0042
     16  CD2      -14.3830   32.3000   35.6440 C.ar   16  PHE16      -0.0042
     17  CE1      -17.1570   32.4790   35.8510 C.ar   16  PHE16      -0.0003
     18  CE2      -15.1330   32.7760   34.5670 C.ar   16  PHE16      -0.0003
     19  CZ       -16.5230   32.8700   34.6710 C.ar   16  PHE16      -0.0000
     20  N        -21.5290   31.5310   37.4970 N.3    19  VAL19      -0.1245
     21  CA       -21.9000   32.6810   38.3250 C.3    19  VAL19       0.1561
     22  C        -23.2430   33.2510   37.8680 C.2    19  VAL19       0.2260
     23  O        -23.4120   33.5680   36.6830 O.2    19  VAL19      -0.2867
     24  CB       -20.8290   33.7950   38.2340 C.3    19  VAL19       0.0252
     25  CG1      -21.2890   35.0660   38.9540 C.3    19  VAL19       0.0019
     26  CG2      -19.4990   33.3180   38.7960 C.3    19  VAL19       0.0019
     27  N        -23.9540   38.2550   43.6280 N.3    32  ALA32      -0.1245
     28  CA       -23.5230   37.3060   42.6210 C.3    32  ALA32       0.1562
     29  C        -23.4490   35.9480   43.3130 C.2    32  ALA32       0.2260
     30  O        -22.9580   35.8550   44.4470 O.2    32  ALA32      -0.2867
     31  CB       -22.1800   37.6980   42.0670 C.3    32  ALA32       0.0290
     32  N        -22.0210   32.1910   42.9860 N.3    34  LYS34      -0.1245
     33  CA       -21.0130   31.4040   42.2980 C.3    34  LYS34       0.1561
     34  C        -21.0250   29.9670   42.7980 C.2    34  LYS34       0.2260
     35  O        -20.8690   29.7020   44.0010 O.2    34  LYS34      -0.2867
     36  CB       -19.6340   32.0350   42.4800 C.3    34  LYS34       0.0271
     37  CG       -18.4610   31.2360   41.9040 C.3    34  LYS34       0.0035
     38  CD       -17.2470   32.1430   41.7920 C.3    34  LYS34       0.0206
     39  CE       -15.9650   31.4140   42.1200 C.3    34  LYS34       0.1093
     40  NZ       -14.7470   32.2040   41.7110 N.3    34  LYS34      -0.1314
     41  N        -10.2290   29.2760   47.9960 N.3    56  GLU56      -0.1245
     42  CA       -10.8250   30.5400   47.5520 C.3    56  GLU56       0.1567
     43  C        -11.6900   31.1650   48.6520 C.2    56  GLU56       0.2260
     44  O        -11.6930   32.3790   48.8330 O.2    56  GLU56      -0.2867
     45  CB       -11.6200   30.3190   46.2570 C.3    56  GLU56       0.0388
     46  CG       -12.6150   31.4140   45.9000 C.3    56  GLU56       0.1160
     47  CD       -13.2550   31.2070   44.5370 C.2    56  GLU56       0.3649
     48  OE1      -13.1730   30.0840   44.0060 O.co2  56  GLU56      -0.2457
     49  OE2      -13.8440   32.1670   43.9990 O.co2  56  GLU56      -0.2457
     50  N        -14.2270   42.4750   45.7140 N.3    71  ILE71      -0.1245
     51  CA       -15.5960   41.9500   45.8600 C.3    71  ILE71       0.1561
     52  C        -15.6490   41.0720   47.1090 C.2    71  ILE71       0.2260
     53  O        -14.9100   40.0910   47.2040 O.2    71  ILE71      -0.2867
     54  CB       -16.0690   41.1560   44.5910 C.3    71  ILE71       0.0252
     55  CG1      -16.3960   42.0930   43.4250 C.3    71  ILE71       0.0019
     56  CG2      -17.2960   40.2790   44.8810 C.3    71  ILE71       0.0019
     57  CD1      -17.3580   43.2530   43.7430 C.3    71  ILE71       0.0001
     58  N        -21.5350   36.5670   46.7920 N.3    87  LEU87      -0.1231
     59  CA       -20.5980   37.6640   46.6340 C.3    87  LEU87       0.1693
     60  C        -21.3260   38.9670   46.3330 C.2    87  LEU87       0.2592
     61  O        -22.4470   38.9580   45.8410 O.2    87  LEU87      -0.2718
     62  CB       -19.6210   37.3440   45.5040 C.3    87  LEU87       0.0284
     63  CG       -18.7870   36.0760   45.7460 C.3    87  LEU87       0.0019
     64  CD1      -18.5630   35.2880   44.4510 C.3    87  LEU87       0.0001
     65  CD2      -17.4640   36.4360   46.4080 C.3    87  LEU87       0.0001
     66  N        -20.6740   40.0890   46.6300 N.am   88  GLU88      -0.1966
     67  CA       -21.1930   41.4110   46.2580 C.3    88  GLU88       0.1733
     68  C        -21.3910   41.5030   44.7620 C.2    88  GLU88       0.2616
     69  O        -20.6330   40.9100   43.9890 O.2    88  GLU88      -0.2715
     70  CB       -20.2140   42.5100   46.6820 C.3    88  GLU88       0.0429
     71  CG       -20.1720   42.7550   48.1820 C.3    88  GLU88       0.1163
     72  CD       -19.1840   43.8500   48.5500 C.2    88  GLU88       0.3649
     73  OE1      -19.5430   44.6920   49.4050 O.co2  88  GLU88      -0.2457
     74  OE2      -18.0620   43.8650   47.9920 O.co2  88  GLU88      -0.2457
     75  N        -22.4090   42.2470   44.3490 N.am   89  ARG89      -0.1964
     76  CA       -22.5830   42.5530   42.9360 C.3    89  ARG89       0.1714
     77  C        -22.8380   44.0380   42.7320 C.2    89  ARG89       0.2458
     78  O        -23.9020   44.5360   43.0920 O.2    89  ARG89      -0.2730
     79  CB       -23.7230   41.7320   42.3270 C.3    89  ARG89       0.0347
     80  CG       -23.9780   42.0510   40.8560 C.3    89  ARG89       0.0492
     81  CD       -24.9710   41.1280   40.1470 C.3    89  ARG89       0.2205
     82  NE       -26.2740   41.0630   40.8020 N.pl3  89  ARG89      -0.0865
     83  CZ       -27.3190   41.8320   40.4910 C.cat  89  ARG89       0.5346
     84  NH1      -27.2160   42.7570   39.5420 N.pl3  89  ARG89       0.1354
     85  NH2      -28.4680   41.6730   41.1320 N.pl3  89  ARG89       0.1354
     86  N        -21.8720   44.7480   42.1440 N.am   90  PRO90      -0.2727
     87  CA       -22.1190   46.1380   41.7270 C.3    90  PRO90       0.1402
     88  C        -23.1120   46.1800   40.5640 C.2    90  PRO90       0.2269
     89  O        -23.2220   45.2080   39.8000 O.2    90  PRO90      -0.2865
     90  CB       -20.7360   46.6600   41.2970 C.3    90  PRO90       0.0296
     91  CG       -19.7370   45.5080   41.4780 C.3    90  PRO90       0.0237
     92  CD       -20.5130   44.2750   41.8080 C.3    90  PRO90       0.0939
     93  N        -22.4590   47.3490   36.0610 N.3    93  VAL93      -0.1245
     94  CA       -21.1150   46.7880   36.1060 C.3    93  VAL93       0.1561
     95  C        -20.6260   46.3200   34.7270 C.2    93  VAL93       0.2260
     96  O        -21.4230   45.9340   33.8670 O.2    93  VAL93      -0.2867
     97  CB       -21.0640   45.6000   37.1210 C.3    93  VAL93       0.0252
     98  CG1      -21.8140   44.3600   36.5730 C.3    93  VAL93       0.0019
     99  CG2      -19.6460   45.2600   37.5050 C.3    93  VAL93       0.0019
    100  N        -10.3830   39.8730   35.5230 N.3   139  ASN139     -0.1240
    101  CA       -10.6280   39.6770   36.9530 C.3   139  ASN139      0.1653
    102  C        -10.8230   40.9930   37.7050 C.2   139  ASN139      0.2266
    103  O        -10.6380   41.0670   38.9200 O.2   139  ASN139     -0.2867
    104  CB        -9.5320   38.7890   37.5820 C.3   139  ASN139      0.1155
    105  CG        -9.6490   37.3290   37.1560 C.2   139  ASN139      0.2627
    106  OD1      -10.7170   36.8820   36.7490 O.2   139  ASN139     -0.2716
    107  ND2       -8.5580   36.5780   37.2570 N.am  139  ASN139     -0.0877
    108  N        -13.6230   44.1800   38.0650 N.3   141  LEU141     -0.1245
    109  CA       -14.9350   44.7280   37.7470 C.3   141  LEU141      0.1561
    110  C        -14.9650   46.2310   37.9290 C.2   141  LEU141      0.2260
    111  O        -14.3540   46.7600   38.8660 O.2   141  LEU141     -0.2867
    112  CB       -16.0060   44.1240   38.6470 C.3   141  LEU141      0.0270
    113  CG       -16.3280   42.6360   38.5120 C.3   141  LEU141      0.0019
    114  CD1      -17.4390   42.3110   39.5250 C.3   141  LEU141      0.0001
    115  CD2      -16.7260   42.2470   37.0820 C.3   141  LEU141      0.0001
    116  N        -11.8130   40.4060   41.5120 N.3   152  ILE152     -0.1231
    117  CA       -12.5730   39.1550   41.6590 C.3   152  ILE152      0.1692
    118  C        -11.7220   37.9280   41.3520 C.2   152  ILE152      0.2592
    119  O        -10.5890   38.0590   40.8640 O.2   152  ILE152     -0.2718
    120  CB       -13.8170   39.1600   40.7340 C.3   152  ILE152      0.0266
    121  CG1      -13.3990   39.2710   39.2640 C.3   152  ILE152      0.0019
    122  CG2      -14.7450   40.3030   41.0970 C.3   152  ILE152      0.0020
    123  CD1      -14.5470   38.9500   38.2430 C.3   152  ILE152      0.0001
    124  N        -12.2940   36.7460   41.6300 N.am  153  ASP153     -0.1974
    125  CA       -11.7070   35.4280   41.3240 C.3   153  ASP153      0.1709
    126  C        -10.3710   35.1430   42.0170 C.2   153  ASP153      0.2293
    127  O         -9.2920   35.2800   41.4250 O.2   153  ASP153     -0.2864
    128  CB       -11.6080   35.1940   39.7990 C.3   153  ASP153      0.1436
    129  CG       -11.5120   33.7100   39.4200 C.2   153  ASP153      0.3671
    130  OD1      -11.4270   32.8330   40.3170 O.co2 153  ASP153     -0.2456
    131  OD2      -11.5110   33.3280   38.2260 O.co2 153  ASP153     -0.2456
@<TRIPOS>BOND
     1     4     3    2
     2     3     2    1
     3    96    95    2
     4     2     1    1
     5     2     5    1
     6    18    19   ar
     7    18    16   ar
     8    19    17   ar
     9    95    94    1
    10     8     6    1
    11     5     6    1
    12   100   101    1
    13    16    14   ar
    14    17    15   ar
    15    93    94    1
    16     6     7    1
    17    94    97    1
    18    98    97    1
    19    23    22    2
    20     9    10    1
    21   106   105    2
    22    14    15   ar
    23    14    13    1
    24   101   104    1
    25   101   102    1
    26   115   113    1
    27    97    99    1
    28   105   107   am
    29   105   104    1
    30    20    21    1
    31   102   103    2
    32   109   110    1
    33   109   108    1
    34   109   112    1
    35    22    21    1
    36   110   111    2
    37    13    10    1
    38    10    11    1
    39   131   129   ar
    40    24    21    1
    41    24    26    1
    42    24    25    1
    43   123   121    1
    44    11    12    2
    45   113   112    1
    46   113   114    1
    47   121   120    1
    48   129   128    1
    49   129   130   ar
    50    84    83    1
    51   128   125    1
    52    89    88    2
    53    81    82    1
    54    81    80    1
    55    83    82    2
    56    83    85    1
    57    88    87    1
    58   120   122    1
    59   120   117    1
    60    80    79    1
    61   119   118    2
    62    90    91    1
    63    90    87    1
    64   125   124    1
    65   125   126    1
    66   118   124   am
    67   118   117    1
    68   127   126    2
    69    91    92    1
    70   116   117    1
    71    40    39    1
    72    87    86    1
    73    38    37    1
    74    38    39    1
    75    92    86    1
    76    37    36    1
    77    31    28    1
    78    86    77   am
    79    33    36    1
    80    33    34    1
    81    33    32    1
    82    79    76    1
    83    28    29    1
    84    28    27    1
    85    77    76    1
    86    77    78    2
    87    34    35    2
    88    76    75    1
    89    29    30    2
    90    55    57    1
    91    55    54    1
    92    69    68    2
    93    49    47   ar
    94    48    47   ar
    95    75    68   am
    96    64    63    1
    97    47    46    1
    98    54    56    1
    99    54    51    1
   100    68    67    1
   101    62    63    1
   102    62    59    1
   103    50    51    1
   104    63    65    1
   105    61    60    2
   106    51    52    1
   107    46    45    1
   108    45    42    1
   109    67    66    1
   110    67    70    1
   111    60    66   am
   112    60    59    1
   113    59    58    1
   114    70    71    1
   115    52    53    2
   116    42    41    1
   117    42    43    1
   118    74    72   ar
   119    71    72    1
   120    72    73   ar
   121    43    44    2
