@<TRIPOS>MOLECULE
tmp/3c4fA00.pdb
 149 139 0 0 0
SMALL
GASTEIGER

@<TRIPOS>ATOM
      1  N          6.4920    8.5490   25.4130 N.3    21  LEU21      -0.1231
      2  CA         7.3330    7.4130   25.0330 C.3    21  LEU21       0.1693
      3  C          8.3860    7.7610   23.9800 C.2    21  LEU21       0.2592
      4  O          8.1740    8.6290   23.1100 O.2    21  LEU21      -0.2718
      5  CB         6.4640    6.3100   24.4510 C.3    21  LEU21       0.0284
      6  CG         5.7070    5.3860   25.3870 C.3    21  LEU21       0.0019
      7  CD1        4.7940    4.5180   24.5190 C.3    21  LEU21       0.0001
      8  CD2        6.6570    4.5470   26.2350 C.3    21  LEU21       0.0001
      9  N          9.5020    7.0450   24.0550 N.am   22  GLY22      -0.1957
     10  CA        10.5980    7.1810   23.1150 C.3    22  GLY22       0.1869
     11  C         11.3600    8.4980   23.1270 C.2    22  GLY22       0.2309
     12  O         12.0040    8.7920   22.1320 O.2    22  GLY22      -0.2863
     13  N         10.4020    9.4000   18.0210 N.3    26  PHE26      -0.1241
     14  CA         9.3530    9.0450   17.0670 C.3    26  PHE26       0.1605
     15  C          8.2590   10.0940   16.9660 C.2    26  PHE26       0.2264
     16  O          7.1760    9.7990   16.4520 O.2    26  PHE26      -0.2867
     17  CB         8.7110    7.7070   17.4650 C.3    26  PHE26       0.0534
     18  CG         9.6890    6.5900   17.6150 C.ar   26  PHE26      -0.0203
     19  CD1       10.2240    6.2870   18.8430 C.ar   26  PHE26      -0.0042
     20  CD2       10.0750    5.8350   16.5160 C.ar   26  PHE26      -0.0042
     21  CE1       11.1200    5.2550   18.9780 C.ar   26  PHE26      -0.0003
     22  CE2       10.9740    4.8000   16.6460 C.ar   26  PHE26      -0.0003
     23  CZ        11.4940    4.5020   17.8660 C.ar   26  PHE26      -0.0000
     24  N          4.5890   10.8730   20.9920 N.3    29  VAL29      -0.1245
     25  CA         4.0130    9.5590   21.2270 C.3    29  VAL29       0.1561
     26  C          3.8300    9.2920   22.7240 C.2    29  VAL29       0.2260
     27  O          4.6990    9.5770   23.5100 O.2    29  VAL29      -0.2867
     28  CB         4.9180    8.4850   20.6090 C.3    29  VAL29       0.0252
     29  CG1        4.3460    7.1020   20.8330 C.3    29  VAL29       0.0019
     30  CG2        5.0950    8.7720   19.1400 C.3    29  VAL29       0.0019
     31  N          0.6950    2.1000   22.1610 N.3    49  ALA49      -0.1245
     32  CA         1.4220    3.3430   21.9660 C.3    49  ALA49       0.1562
     33  C          0.5310    4.1830   21.0800 C.2    49  ALA49       0.2260
     34  O         -0.2250    3.6320   20.3080 O.2    49  ALA49      -0.2867
     35  CB         2.7830    3.0850   21.3380 C.3    49  ALA49       0.0290
     36  N          0.4850    7.8290   18.6550 N.3    51  LYS51      -0.1245
     37  CA         1.1430    8.9590   17.9640 C.3    51  LYS51       0.1561
     38  C          0.1370   10.0580   17.6220 C.2    51  LYS51       0.2260
     39  O         -0.9730    9.7830   17.1830 O.2    51  LYS51      -0.2867
     40  CB         1.7990    8.4720   16.6680 C.3    51  LYS51       0.0271
     41  CG         2.7450    9.4660   15.9510 C.3    51  LYS51       0.0035
     42  CD         3.7460    8.6740   15.0710 C.3    51  LYS51       0.0206
     43  CE         4.7530    9.5090   14.2840 C.3    51  LYS51       0.1093
     44  NZ         4.8290   10.8750   14.8230 N.3    51  LYS51      -0.1314
     45  N          1.3210    7.9160    6.8130 N.3    68  GLU68      -0.1245
     46  CA         1.9240    6.9150    7.6510 C.3    68  GLU68       0.1567
     47  C          0.8760    5.8790    8.0530 C.2    68  GLU68       0.2260
     48  O          1.0840    4.6790    7.9080 O.2    68  GLU68      -0.2867
     49  CB         2.5030    7.6280    8.8790 C.3    68  GLU68       0.0388
     50  CG         3.5640    6.9070    9.6790 C.3    68  GLU68       0.1160
     51  CD         4.1300    7.7940   10.7910 C.2    68  GLU68       0.3649
     52  OE1        4.4300    8.9900   10.5230 O.co2  68  GLU68      -0.2457
     53  OE2        4.2890    7.3060   11.9200 O.co2  68  GLU68      -0.2457
     54  N          0.5040    1.9410    6.7540 N.3    72  MET72      -0.1245
     55  CA         0.4240    0.8760    7.7330 C.3    72  MET72       0.1570
     56  C         -0.8060    0.0040    7.5280 C.2    72  MET72       0.2261
     57  O         -0.7110   -1.2100    7.7300 O.2    72  MET72      -0.2867
     58  CB         0.4850    1.4210    9.1670 C.3    72  MET72       0.0387
     59  CG         1.9040    1.7950    9.6100 C.3    72  MET72       0.0595
     60  SD         1.9610    2.2130   11.3650 S.3    72  MET72      -0.1393
     61  CE         1.6440    3.8490   11.1930 C.3    72  MET72       0.0692
     62  N          6.0530   -2.9810   13.8910 N.3    82  ILE82      -0.1245
     63  CA         5.1530   -2.3440   14.8180 C.3    82  ILE82       0.1561
     64  C          3.8220   -2.2600   14.0790 C.2    82  ILE82       0.2260
     65  O          3.6880   -1.5030   13.1230 O.2    82  ILE82      -0.2867
     66  CB         5.6550   -0.9170   15.2240 C.3    82  ILE82       0.0252
     67  CG1        6.9080   -1.0110   16.1220 C.3    82  ILE82       0.0019
     68  CG2        4.5580   -0.1820   15.9120 C.3    82  ILE82       0.0019
     69  CD1        6.6430   -1.4680   17.5490 C.3    82  ILE82       0.0001
     70  N         -3.0890    7.7510   16.2940 N.3    96  VAL96      -0.1245
     71  CA        -2.7310    6.5430   15.5470 C.3    96  VAL96       0.1561
     72  C         -2.2630    5.5580   16.6000 C.2    96  VAL96       0.2260
     73  O         -1.2030    5.7280   17.2080 O.2    96  VAL96      -0.2867
     74  CB        -1.6210    6.7760   14.4910 C.3    96  VAL96       0.0252
     75  CG1       -1.2970    5.4550   13.7770 C.3    96  VAL96       0.0019
     76  CG2       -2.0350    7.8300   13.4670 C.3    96  VAL96       0.0019
     77  N         -0.7790    2.1520   17.9330 N.3    98  VAL98      -0.1231
     78  CA         0.1290    1.0680   17.5130 C.3    98  VAL98       0.1692
     79  C          0.6070    0.2100   18.6690 C.2    98  VAL98       0.2592
     80  O          0.3710    0.5500   19.8010 O.2    98  VAL98      -0.2718
     81  CB         1.3590    1.6450   16.7730 C.3    98  VAL98       0.0266
     82  CG1        0.9030    2.5940   15.5960 C.3    98  VAL98       0.0020
     83  CG2        2.2700    2.3940   17.7480 C.3    98  VAL98       0.0020
     84  N          1.2670   -0.9160   18.3590 N.am   99  GLU99      -0.1966
     85  CA         1.7510   -1.8400   19.3680 C.3    99  GLU99       0.1733
     86  C          2.8120   -1.1920   20.2460 C.2    99  GLU99       0.2616
     87  O          3.6190   -0.3980   19.7850 O.2    99  GLU99      -0.2715
     88  CB         2.3060   -3.1270   18.7590 C.3    99  GLU99       0.0429
     89  CG         1.2540   -4.0120   18.1120 C.3    99  GLU99       0.1163
     90  CD         1.8460   -5.2340   17.4110 C.2    99  GLU99       0.3649
     91  OE1        2.9470   -5.1490   16.8410 O.co2  99  GLU99      -0.2457
     92  OE2        1.2030   -6.2990   17.4190 O.co2  99  GLU99      -0.2457
     93  N          2.7570   -1.5420   21.5270 N.am  100  TYR100     -0.1960
     94  CA         3.6360   -1.0130   22.5570 C.3   100  TYR100      0.1771
     95  C          4.8600   -1.8920   22.7030 C.2   100  TYR100      0.2619
     96  O          4.7720   -3.1080   22.6480 O.2   100  TYR100     -0.2715
     97  CB         2.8550   -0.9150   23.8710 C.3   100  TYR100      0.0574
     98  CG         3.6910   -0.6410   25.0870 C.ar  100  TYR100     -0.0198
     99  CD1        4.5610    0.4410   25.1210 C.ar  100  TYR100     -0.0009
    100  CD2        3.6160   -1.4680   26.2050 C.ar  100  TYR100     -0.0009
    101  CE1        5.3050    0.7070   26.2300 C.ar  100  TYR100      0.0417
    102  CE2        4.3530   -1.2090   27.3250 C.ar  100  TYR100      0.0417
    103  CZ         5.1980   -0.1200   27.3290 C.ar  100  TYR100      0.1957
    104  OH         5.9590    0.1370   28.4200 O.3   100  TYR100     -0.2866
    105  N          6.0100   -1.2580   22.8500 N.am  101  ALA101     -0.1977
    106  CA         7.2840   -1.9500   22.9980 C.3   101  ALA101      0.1597
    107  C          7.9290   -1.5240   24.3200 C.2   101  ALA101      0.2287
    108  O          8.6180   -0.5180   24.3690 O.2   101  ALA101     -0.2864
    109  CB         8.1910   -1.6020   21.8190 C.3   101  ALA101      0.0319
    110  N         12.0790   -0.6790   24.9200 N.3   104  GLY104     -0.1225
    111  CA        12.7350    0.3720   24.1670 C.3   104  GLY104      0.1811
    112  C         13.3390   -0.0300   22.8380 C.2   104  GLY104      0.2280
    113  O         13.1410   -1.1400   22.3220 O.2   104  GLY104     -0.2866
    114  N         12.2260   -1.7570   17.7800 N.3   155  LEU155     -0.1245
    115  CA        11.7490   -1.7550   19.1540 C.3   155  LEU155      0.1561
    116  C         11.6320   -3.1820   19.6580 C.2   155  LEU155      0.2260
    117  O         11.4630   -4.1130   18.8710 O.2   155  LEU155     -0.2867
    118  CB        10.4250   -1.0270   19.2420 C.3   155  LEU155      0.0270
    119  CG        10.5060    0.4500   18.8380 C.3   155  LEU155      0.0019
    120  CD1        9.1420    1.0510   18.5980 C.3   155  LEU155      0.0001
    121  CD2       11.2130    1.2270   19.9360 C.3   155  LEU155      0.0001
    122  N         10.1520   -0.3170   13.3870 N.3   165  ALA165     -0.1231
    123  CA         9.3270    0.8860   13.5120 C.3   165  ALA165      0.1694
    124  C          9.6120    1.8330   12.3850 C.2   165  ALA165      0.2592
    125  O         10.6820    1.7810   11.7830 O.2   165  ALA165     -0.2718
    126  CB         9.6790    1.6260   14.8320 C.3   165  ALA165      0.0304
    127  N          8.6650    2.7390   12.1450 N.am  166  ASP166     -0.1960
    128  CA         8.8270    3.8340   11.1950 C.3   166  ASP166      0.1840
    129  C          9.1270    3.4070    9.7750 C.2   166  ASP166      0.2622
    130  O          9.8350    4.1120    9.0580 O.2   166  ASP166     -0.2715
    131  CB         9.9180    4.7780   11.7130 C.3   166  ASP166      0.1450
    132  CG         9.3930    5.7550   12.7450 C.2   166  ASP166      0.3671
    133  OD1        8.3370    5.4570   13.3500 O.co2 166  ASP166     -0.2456
    134  OD2        9.9710    6.8410   13.0040 O.co2 166  ASP166     -0.2456
    135  N          8.5500    2.2790    9.3640 N.am  167  PHE167     -0.1960
    136  CA         8.7480    1.7430    8.0110 C.3   167  PHE167      0.1771
    137  C          7.8550    2.4300    6.9800 C.2   167  PHE167      0.2620
    138  O          8.0680    2.2500    5.7990 O.2   167  PHE167     -0.2715
    139  CB         8.5030    0.2220    7.9770 C.3   167  PHE167      0.0574
    140  CG         7.1960   -0.1870    8.5870 C.ar  167  PHE167     -0.0200
    141  CD1        6.0270   -0.0980    7.8670 C.ar  167  PHE167     -0.0042
    142  CD2        7.1380   -0.5820    9.9060 C.ar  167  PHE167     -0.0042
    143  CE1        4.8320   -0.4390    8.4280 C.ar  167  PHE167     -0.0003
    144  CE2        5.9460   -0.9300   10.4700 C.ar  167  PHE167     -0.0003
    145  CZ         4.7920   -0.8640    9.7440 C.ar  167  PHE167     -0.0000
    146  N          6.8760    3.2250    7.4150 N.am  168  GLY168     -0.1954
    147  CA         5.9580    3.8940    6.5050 C.3   168  GLY168      0.1869
    148  C          6.0160    5.4100    6.6190 C.2   168  GLY168      0.2309
    149  O          5.0790    6.1040    6.2420 O.2   168  GLY168     -0.2863
@<TRIPOS>BOND
     1   138   137    2
     2   149   148    2
     3   147   148    1
     4   147   146    1
     5    54    55    1
     6    45    46    1
     7   137   146   am
     8   137   136    1
     9    56    57    2
    10    56    55    1
    11    46    47    1
    12    46    49    1
    13    55    58    1
    14   141   143   ar
    15   141   140   ar
    16    48    47    2
    17   139   136    1
    18   139   140    1
    19   136   135    1
    20   143   145   ar
    21   140   142   ar
    22    49    50    1
    23   130   129    2
    24    58    59    1
    25   135   129   am
    26    59    60    1
    27    50    51    1
    28   145   144   ar
    29   129   128    1
    30   142   144   ar
    31    52    51   ar
    32    51    53   ar
    33    61    60    1
    34   128   131    1
    35   128   127    1
    36   131   132    1
    37   125   124    2
    38   127   124   am
    39   124   123    1
    40   132   134   ar
    41   132   133   ar
    42    65    64    2
    43   122   123    1
    44    76    74    1
    45   123   126    1
    46    75    74    1
    47    62    63    1
    48    64    63    1
    49    43    44    1
    50    43    42    1
    51    74    71    1
    52    63    66    1
    53    42    41    1
    54    66    68    1
    55    66    67    1
    56    71    70    1
    57    71    72    1
    58    82    81    1
    59    41    40    1
    60    67    69    1
    61    16    15    2
    62    20    22   ar
    63    20    18   ar
    64    72    73    2
    65    22    23   ar
    66    40    37    1
    67    81    78    1
    68    81    83    1
    69    91    90   ar
    70    15    14    1
    71    14    17    1
    72    14    13    1
    73    39    38    2
    74    90    92   ar
    75    90    89    1
    76    17    18    1
    77    78    77    1
    78    78    79    1
    79    18    19   ar
    80    38    37    1
    81   114   115    1
    82    23    21   ar
    83    37    36    1
    84    89    88    1
    85    84    79   am
    86    84    85    1
    87   120   119    1
    88    79    80    2
    89    88    85    1
    90   119   118    1
    91   119   121    1
    92    19    21   ar
    93   117   116    2
    94    30    28    1
    95   115   118    1
    96   115   116    1
    97    85    86    1
    98    87    86    2
    99    86    93   am
   100    34    33    2
   101    28    29    1
   102    28    25    1
   103    24    25    1
   104    33    32    1
   105    25    26    1
   106    35    32    1
   107    93    94    1
   108   109   106    1
   109    32    31    1
   110    12    11    2
   111   113   112    2
   112    94    95    1
   113    94    97    1
   114    96    95    2
   115    95   105   am
   116    26    27    2
   117   112   111    1
   118   105   106    1
   119   106   107    1
   120     4     3    2
   121    10    11    1
   122    10     9    1
   123    97    98    1
   124     3     9   am
   125     3     2    1
   126   111   110    1
   127   107   108    2
   128     5     2    1
   129     5     6    1
   130     7     6    1
   131     2     1    1
   132    98    99   ar
   133    98   100   ar
   134    99   101   ar
   135     6     8    1
   136   100   102   ar
   137   101   103   ar
   138   102   103   ar
   139   103   104    1
