@<TRIPOS>MOLECULE
tmp/3c4hA00.pdb
 85 84 0 0 0
SMALL
GASTEIGER

@<TRIPOS>ATOM
      1  N         12.5060   -2.9840    8.8840 N.3   209  HIS209     -0.1226
      2  CA        13.8180   -2.9600    9.4990 C.3   209  HIS209      0.1752
      3  C         13.6680   -2.3350   10.8830 C.2   209  HIS209      0.2597
      4  O         13.4530   -1.1230   11.0330 O.2   209  HIS209     -0.2718
      5  CB        14.8510   -2.2270    8.6320 C.3   209  HIS209      0.0759
      6  CG        16.2390   -2.2500    9.2080 C.ar  209  HIS209      0.0818
      7  ND1       17.1600   -3.2280    8.8940 N.ar  209  HIS209     -0.2268
      8  CD2       16.8510   -1.4310   10.0990 C.ar  209  HIS209      0.1154
      9  CE1       18.2850   -3.0030    9.5580 C.ar  209  HIS209      0.1986
     10  NE2       18.1230   -1.9200   10.2960 N.ar  209  HIS209     -0.2212
     11  N         13.7210   -3.1860   11.8950 N.am  210  GLY210     -0.1942
     12  CA        13.5970   -2.7410   13.2770 C.3   210  GLY210      0.2014
     13  C         14.9690   -2.3210   13.7120 C.2   210  GLY210      0.2639
     14  O         15.9640   -2.8690   13.2310 O.2   210  GLY210     -0.2714
     15  N         15.0360   -1.3600   14.6300 N.am  211  THR211     -0.1950
     16  CA        16.3200   -0.7830   15.0280 C.3   211  THR211      0.1897
     17  C         16.2470   -0.2240   16.4460 C.2   211  THR211      0.2313
     18  O         15.1640    0.0730   16.9430 O.2   211  THR211     -0.2863
     19  CB        16.7150    0.3490   14.0430 C.3   211  THR211      0.1794
     20  OG1       18.0260    0.8210   14.3550 O.3   211  THR211     -0.2208
     21  CG2       15.7250    1.5180   14.1330 C.3   211  THR211      0.0378
     22  N         19.7000   -6.1370    6.3470 N.3   239  TYR239     -0.1227
     23  CA        18.7070   -7.1310    6.7540 C.3   239  TYR239      0.1736
     24  C         17.3080   -6.5330    6.8280 C.2   239  TYR239      0.2595
     25  O         17.1020   -5.4850    7.4510 O.2   239  TYR239     -0.2718
     26  CB        19.0840   -7.6920    8.1280 C.3   239  TYR239      0.0548
     27  CG        20.2680   -8.6590    8.1030 C.ar  239  TYR239     -0.0200
     28  CD1       20.0700  -10.0400    8.2430 C.ar  239  TYR239     -0.0009
     29  CD2       21.5710   -8.1980    7.9370 C.ar  239  TYR239     -0.0009
     30  CE1       21.1530  -10.9380    8.2240 C.ar  239  TYR239      0.0417
     31  CE2       22.6660   -9.0950    7.9060 C.ar  239  TYR239      0.0417
     32  CZ        22.4390  -10.4550    8.0460 C.ar  239  TYR239      0.1957
     33  OH        23.4870  -11.3510    8.0010 O.3   239  TYR239     -0.2866
     34  N         16.3620   -7.2100    6.1740 N.am  240  PHE240     -0.1962
     35  CA        14.9440   -6.8550    6.2420 C.3   240  PHE240      0.1771
     36  C         14.0990   -8.0890    6.5540 C.2   240  PHE240      0.2619
     37  O         14.5620   -9.2190    6.4150 O.2   240  PHE240     -0.2715
     38  CB        14.4740   -6.2520    4.9160 C.3   240  PHE240      0.0574
     39  CG        15.2440   -5.0280    4.4750 C.ar  240  PHE240     -0.0200
     40  CD1       14.8570   -3.7610    4.8930 C.ar  240  PHE240     -0.0042
     41  CD2       16.3300   -5.1460    3.6130 C.ar  240  PHE240     -0.0042
     42  CE1       15.5450   -2.6330    4.4800 C.ar  240  PHE240     -0.0003
     43  CE2       17.0300   -4.0300    3.1930 C.ar  240  PHE240     -0.0003
     44  CZ        16.6240   -2.7620    3.6250 C.ar  240  PHE240     -0.0000
     45  N         12.8550   -7.8630    6.9610 N.am  241  ALA241     -0.1977
     46  CA        11.9020   -8.9280    7.2280 C.3   241  ALA241      0.1597
     47  C         10.5560   -8.5690    6.6060 C.2   241  ALA241      0.2287
     48  O         10.1860   -7.4040    6.5530 O.2   241  ALA241     -0.2864
     49  CB        11.7420   -9.1300    8.7190 C.3   241  ALA241      0.0319
     50  N          9.3710  -10.5150   13.4410 N.3   246  LYS246     -0.1231
     51  CA        10.8190  -10.7350   13.2980 C.3   246  LYS246      0.1693
     52  C         11.6240   -9.4300   13.4900 C.2   246  LYS246      0.2592
     53  O         12.5750   -9.3820   14.2760 O.2   246  LYS246     -0.2718
     54  CB        11.1190  -11.3690   11.9310 C.3   246  LYS246      0.0285
     55  CG        12.5860  -11.5000   11.5640 C.3   246  LYS246      0.0035
     56  CD        13.2810  -12.6600   12.2610 C.3   246  LYS246      0.0206
     57  CE        14.3290  -13.2320   11.3300 C.3   246  LYS246      0.1093
     58  NZ        15.2870  -14.1270   12.0130 N.3   246  LYS246     -0.1314
     59  N         11.2390   -8.3700   12.7850 N.am  247  SER247     -0.1952
     60  CA        11.9140   -7.0730   12.9400 C.3   247  SER247      0.1924
     61  C         11.7070   -6.4300   14.3080 C.2   247  SER247      0.2314
     62  O         12.6030   -5.7440   14.8010 O.2   247  SER247     -0.2863
     63  CB        11.4970   -6.0970   11.8380 C.3   247  SER247      0.2116
     64  OG        12.2250   -6.3570   10.6450 O.3   247  SER247     -0.2180
     65  N         14.2890   -6.6290   17.0710 N.3   250  TYR250     -0.1241
     66  CA        15.4820   -5.7740   17.0020 C.3   250  TYR250      0.1605
     67  C         15.1880   -4.3370   17.4030 C.2   250  TYR250      0.2264
     68  O         16.0630   -3.4780   17.3430 O.2   250  TYR250     -0.2867
     69  CB        16.1230   -5.8550   15.6110 C.3   250  TYR250      0.0534
     70  CG        16.5460   -7.2590   15.2720 C.ar  250  TYR250     -0.0201
     71  CD1       17.8220   -7.7250   15.6190 C.ar  250  TYR250     -0.0009
     72  CD2       15.6660   -8.1380   14.6420 C.ar  250  TYR250     -0.0009
     73  CE1       18.2140   -9.0250   15.3290 C.ar  250  TYR250      0.0417
     74  CE2       16.0460   -9.4430   14.3440 C.ar  250  TYR250      0.0417
     75  CZ        17.3200   -9.8800   14.6910 C.ar  250  TYR250      0.1957
     76  OH        17.6930  -11.1730   14.4060 O.3   250  TYR250     -0.2866
     77  N         14.6340  -13.7590    6.3040 N.3   339  GLU339     -0.1245
     78  CA        15.5000  -12.5940    6.3370 C.3   339  GLU339      0.1567
     79  C         15.8520  -12.2180    4.9000 C.2   339  GLU339      0.2260
     80  O         16.4360  -13.0260    4.1740 O.2   339  GLU339     -0.2867
     81  CB        16.7650  -12.8780    7.1490 C.3   339  GLU339      0.0388
     82  CG        16.4610  -13.3810    8.5680 C.3   339  GLU339      0.1160
     83  CD        17.6610  -13.4530    9.4820 C.2   339  GLU339      0.3649
     84  OE1       18.7720  -13.0430    9.0800 O.co2 339  GLU339     -0.2457
     85  OE2       17.4830  -13.9240   10.6270 O.co2 339  GLU339     -0.2457
@<TRIPOS>BOND
     1    43    41   ar
     2    43    44   ar
     3    41    39   ar
     4    44    42   ar
     5    80    79    2
     6    39    40   ar
     7    39    38    1
     8    42    40   ar
     9    79    78    1
    10    38    35    1
    11    34    35    1
    12    34    24   am
    13    35    36    1
    14    77    78    1
    15    78    81    1
    16    22    23    1
    17    37    36    2
    18    48    47    2
    19    36    45   am
    20    47    46    1
    21    23    24    1
    22    23    26    1
    23    24    25    2
    24    45    46    1
    25    81    82    1
    26    46    49    1
    27    31    29   ar
    28    31    32   ar
    29    29    27   ar
    30    33    32    1
    31    32    30   ar
    32    27    26    1
    33    27    28   ar
    34    30    28   ar
    35    82    83    1
    36     5     6    1
    37     5     2    1
    38     1     2    1
    39     7     6   ar
    40     7     9   ar
    41    84    83   ar
    42     6     8   ar
    43    83    85   ar
    44     2     3    1
    45     9    10   ar
    46     8    10   ar
    47    64    63    1
    48     3     4    2
    49     3    11   am
    50    57    58    1
    51    57    56    1
    52    55    54    1
    53    55    56    1
    54    63    60    1
    55    11    12    1
    56    54    51    1
    57    59    60    1
    58    59    52   am
    59    60    61    1
    60    14    13    2
    61    12    13    1
    62    51    50    1
    63    51    52    1
    64    52    53    2
    65    13    15   am
    66    19    21    1
    67    19    20    1
    68    19    16    1
    69    61    62    2
    70    74    72   ar
    71    74    75   ar
    72    76    75    1
    73    15    16    1
    74    72    70   ar
    75    75    73   ar
    76    16    17    1
    77    70    69    1
    78    70    71   ar
    79    73    71   ar
    80    69    66    1
    81    17    18    2
    82    66    65    1
    83    66    67    1
    84    68    67    2
