@<TRIPOS>MOLECULE
tmp/3c4jA00.pdb
 118 110 0 0 0
SMALL
GASTEIGER

@<TRIPOS>ATOM
      1  N         26.8060   15.1330    4.9360 N.3    13  PHE13      -0.1241
      2  CA        27.0120   14.9020    3.5130 C.3    13  PHE13       0.1605
      3  C         28.4630   15.2530    3.1920 C.2    13  PHE13       0.2264
      4  O         28.7760   16.3950    2.8450 O.2    13  PHE13      -0.2867
      5  CB        26.0380   15.7340    2.6680 C.3    13  PHE13       0.0534
      6  CG        24.5930   15.3190    2.8130 C.ar   13  PHE13      -0.0203
      7  CD1       24.1010   14.1980    2.1440 C.ar   13  PHE13      -0.0042
      8  CD2       23.7200   16.0580    3.6100 C.ar   13  PHE13      -0.0042
      9  CE1       22.7580   13.8130    2.2760 C.ar   13  PHE13      -0.0003
     10  CE2       22.3790   15.6850    3.7490 C.ar   13  PHE13      -0.0003
     11  CZ        21.8970   14.5630    3.0810 C.ar   13  PHE13      -0.0000
     12  N         30.3290   17.8690    5.5050 N.3    16  LEU16      -0.1245
     13  CA        29.2850   18.8210    5.8650 C.3    16  LEU16       0.1561
     14  C         28.3530   18.1880    6.8870 C.2    16  LEU16       0.2260
     15  O         27.5110   17.3580    6.5380 O.2    16  LEU16      -0.2867
     16  CB        28.5040   19.2550    4.6120 C.3    16  LEU16       0.0270
     17  CG        28.1210   20.7280    4.3750 C.3    16  LEU16       0.0019
     18  CD1       26.9450   21.1800    5.2300 C.3    16  LEU16       0.0001
     19  CD2       29.3250   21.6660    4.5550 C.3    16  LEU16       0.0001
     20  N         25.2470   18.2260    8.7900 N.3    18  VAL18      -0.1245
     21  CA        23.9800   18.8920    8.4850 C.3    18  VAL18       0.1561
     22  C         23.0410   18.8400    9.6850 C.2    18  VAL18       0.2260
     23  O         22.3440   19.8070    9.9820 O.2    18  VAL18      -0.2867
     24  CB        23.3260   18.2790    7.2120 C.3    18  VAL18       0.0252
     25  CG1       21.8470   18.6390    7.1010 C.3    18  VAL18       0.0019
     26  CG2       24.0870   18.7210    5.9750 C.3    18  VAL18       0.0019
     27  N         13.0660   27.9170   10.9260 N.3    36  GLY36      -0.1225
     28  CA        14.5050   28.1210   10.8630 C.3    36  GLY36       0.1811
     29  C         15.0140   28.5030    9.4870 C.2    36  GLY36       0.2280
     30  O         14.3360   28.2610    8.4820 O.2    36  GLY36      -0.2866
     31  N         17.4140   28.7370    5.9490 N.3    38  SER38      -0.1202
     32  CA        17.7870   27.7840    4.9210 C.3    38  SER38       0.2020
     33  C         19.0820   27.0930    5.2910 C.2    38  SER38       0.2619
     34  O         20.0010   27.7200    5.8170 O.2    38  SER38      -0.2717
     35  CB        17.9530   28.4880    3.5770 C.3    38  SER38       0.2103
     36  OG        16.7420   29.1100    3.1870 O.3    38  SER38      -0.2182
     37  N         19.1390   25.7950    5.0240 N.am   39  GLY39      -0.1942
     38  CA        20.3140   25.0000    5.3240 C.3    39  GLY39       0.2014
     39  C         20.3830   24.5320    6.7640 C.2    39  GLY39       0.2640
     40  O         21.4520   24.1340    7.2240 O.2    39  GLY39      -0.2714
     41  N         19.2490   24.5620    7.4680 N.am   40  SER40      -0.1935
     42  CA        19.1910   24.1870    8.8930 C.3    40  SER40       0.2055
     43  C         19.0970   22.6770    9.1170 C.2    40  SER40       0.2644
     44  O         19.3680   22.1830   10.2160 O.2    40  SER40      -0.2714
     45  CB        18.0090   24.8680    9.5810 C.3    40  SER40       0.2130
     46  OG        18.2730   26.2380    9.7890 O.3    40  SER40      -0.2179
     47  N         18.7050   21.9520    8.0700 N.am   41  GLY41      -0.1939
     48  CA        18.5450   20.5090    8.1450 C.3    41  GLY41       0.2014
     49  C         17.1110   20.1140    8.4180 C.2    41  GLY41       0.2639
     50  O         16.8270   18.9650    8.7530 O.2    41  GLY41      -0.2714
     51  N         16.2060   21.0740    8.2770 N.am   42  LYS42      -0.1963
     52  CA        14.7820   20.8270    8.5090 C.3    42  LYS42       0.1728
     53  C         14.2400   19.7240    7.5900 C.2    42  LYS42       0.2617
     54  O         13.5350   18.8290    8.0520 O.2    42  LYS42      -0.2715
     55  CB        13.9710   22.1240    8.3500 C.3    42  LYS42       0.0311
     56  CG        14.4930   23.2860    9.1960 C.3    42  LYS42       0.0038
     57  CD        13.5370   24.4830    9.2360 C.3    42  LYS42       0.0206
     58  CE        13.2940   25.1220    7.8580 C.3    42  LYS42       0.1093
     59  NZ        14.5530   25.5580    7.1710 N.3    42  LYS42      -0.1314
     60  N         14.5790   19.8030    6.3010 N.am   43  SER43      -0.1936
     61  CA        14.1600   18.8110    5.3000 C.3    43  SER43       0.2055
     62  C         14.8730   17.4810    5.4830 C.2    43  SER43       0.2643
     63  O         14.2470   16.4260    5.3710 O.2    43  SER43      -0.2714
     64  CB        14.4000   19.3230    3.8810 C.3    43  SER43       0.2130
     65  OG        13.5300   20.3990    3.5760 O.3    43  SER43      -0.2179
     66  N         16.1770   17.5390    5.7610 N.am   44  THR44      -0.1950
     67  CA        16.9770   16.3480    6.0470 C.3    44  THR44       0.1897
     68  C         16.3580   15.5940    7.2110 C.2    44  THR44       0.2313
     69  O         16.1850   14.3790    7.1510 O.2    44  THR44      -0.2863
     70  CB        18.4560   16.7130    6.3830 C.3    44  THR44       0.1794
     71  OG1       19.0430   17.4390    5.2920 O.3    44  THR44      -0.2208
     72  CG2       19.2820   15.4700    6.6520 C.3    44  THR44       0.0378
     73  N         13.1880   13.8630    6.2360 N.3    47  ARG47      -0.1245
     74  CA        13.5620   12.7150    5.4120 C.3    47  ARG47       0.1563
     75  C         13.9730   11.5140    6.2600 C.2    47  ARG47       0.2260
     76  O         13.6400   10.3710    5.9400 O.2    47  ARG47      -0.2867
     77  CB        14.6740   13.0880    4.4400 C.3    47  ARG47       0.0307
     78  CG        14.1850   13.9250    3.2690 C.3    47  ARG47       0.0489
     79  CD        15.2770   14.1380    2.2400 C.3    47  ARG47       0.2205
     80  NE        15.0570   15.3860    1.5100 N.pl3  47  ARG47      -0.0865
     81  CZ        15.8080   16.4770    1.6310 C.cat  47  ARG47       0.5346
     82  NH1       16.8630   16.4850    2.4430 N.pl3  47  ARG47       0.1354
     83  NH2       15.5080   17.5580    0.9240 N.pl3  47  ARG47       0.1354
     84  N         16.2250    8.8910    4.0650 N.3    53  GLU53      -0.1245
     85  CA        17.6610    9.0920    4.2440 C.3    53  GLU53       0.1567
     86  C         18.1790    8.2850    5.4200 C.2    53  GLU53       0.2260
     87  O         17.4940    8.1230    6.4330 O.2    53  GLU53      -0.2867
     88  CB        17.9950   10.5710    4.4640 C.3    53  GLU53       0.0388
     89  CG        17.8140   11.4360    3.2470 C.3    53  GLU53       0.1160
     90  CD        18.9520   12.4090    3.0590 C.2    53  GLU53       0.3649
     91  OE1       18.9780   13.4500    3.7500 O.co2  53  GLU53      -0.2457
     92  OE2       19.8220   12.1350    2.2050 O.co2  53  GLU53      -0.2457
     93  N          6.9770   20.4400   -0.5920 N.3    86  GLN86      -0.1245
     94  CA         6.7380   21.7810   -1.1280 C.3    86  GLN86       0.1566
     95  C          6.1380   21.7540   -2.5420 C.2    86  GLN86       0.2260
     96  O          5.1810   22.4850   -2.8430 O.2    86  GLN86      -0.2867
     97  CB         8.0540   22.5710   -1.1300 C.3    86  GLN86       0.0367
     98  CG         7.9200   24.0560   -1.4450 C.3    86  GLN86       0.0905
     99  CD         9.2470   24.8160   -1.3440 C.2    86  GLN86       0.2608
    100  OE1       10.2640   24.2730   -0.9010 O.2    86  GLN86      -0.2717
    101  NE2        9.2340   26.0810   -1.7490 N.am   86  GLN86      -0.0878
    102  N          6.6780   19.2610    4.6700 N.3   163  ASP163     -0.1225
    103  CA         7.8500   20.0850    4.4120 C.3   163  ASP163      0.1805
    104  C          7.4630   21.3090    3.5760 C.2   163  ASP163      0.2597
    105  O          7.3610   21.2320    2.3440 O.2   163  ASP163     -0.2718
    106  CB         8.9410   19.2680    3.7210 C.3   163  ASP163      0.1424
    107  CG        10.3150   19.8920    3.8710 C.2   163  ASP163      0.3668
    108  OD1       10.4120   21.0060    4.4390 O.co2 163  ASP163     -0.2456
    109  OD2       11.2970   19.2660    3.4150 O.co2 163  ASP163     -0.2456
    110  N          7.2350   22.4260    4.2650 N.am  164  GLU164     -0.1979
    111  CA         6.8540   23.6980    3.6420 C.3   164  GLU164      0.1602
    112  C          5.7560   23.5340    2.5930 C.2   164  GLU164      0.2287
    113  O          5.9430   23.9070    1.4290 O.2   164  GLU164     -0.2864
    114  CB         8.0800   24.4070    3.0620 C.3   164  GLU164      0.0415
    115  CG         8.9010   25.1190    4.1130 C.3   164  GLU164      0.1163
    116  CD        10.1700   25.7350    3.5620 C.2   164  GLU164      0.3649
    117  OE1       10.0760   26.6840    2.7580 O.co2 164  GLU164     -0.2457
    118  OE2       11.2650   25.2780    3.9570 O.co2 164  GLU164     -0.2457
@<TRIPOS>BOND
     1    96    95    2
     2    95    94    1
     3   101    99   am
     4    98    99    1
     5    98    97    1
     6    99   100    2
     7    97    94    1
     8    94    93    1
     9    83    81    1
    10   113   112    2
    11    80    81    2
    12    80    79    1
    13    81    82    1
    14     7     9   ar
    15     7     6   ar
    16    92    90   ar
    17    79    78    1
    18     9    11   ar
    19   105   104    2
    20   112   111    1
    21     5     6    1
    22     5     2    1
    23   117   116   ar
    24     6     8   ar
    25     4     3    2
    26    90    89    1
    27    90    91   ar
    28   114   111    1
    29   114   115    1
    30    11    10   ar
    31    36    35    1
    32     3     2    1
    33    89    88    1
    34    78    77    1
    35   109   107   ar
    36     2     1    1
    37   116   118   ar
    38   116   115    1
    39   104   110   am
    40   104   103    1
    41    65    64    1
    42    35    32    1
    43     8    10   ar
    44   111   110    1
    45   106   107    1
    46   106   103    1
    47   107   108   ar
    48    64    61    1
    49    84    85    1
    50    85    88    1
    51    85    86    1
    52    17    19    1
    53    17    16    1
    54    17    18    1
    55   103   102    1
    56    77    74    1
    57    16    13    1
    58    32    33    1
    59    32    31    1
    60    37    33   am
    61    37    38    1
    62    33    34    2
    63    71    70    1
    64    61    62    1
    65    61    60    1
    66    38    39    1
    67    63    62    2
    68    74    73    1
    69    74    75    1
    70    86    87    2
    71    62    66   am
    72    12    13    1
    73    66    67    1
    74    13    14    1
    75    76    75    2
    76    26    24    1
    77    67    70    1
    78    67    68    1
    79    60    53   am
    80    70    72    1
    81    15    14    2
    82    39    40    2
    83    39    41   am
    84    25    24    1
    85    69    68    2
    86    59    58    1
    87    24    21    1
    88    41    42    1
    89    53    54    2
    90    53    52    1
    91    58    57    1
    92    47    48    1
    93    47    43   am
    94    48    49    1
    95    51    49   am
    96    51    52    1
    97    55    52    1
    98    55    56    1
    99    49    50    2
   100    30    29    2
   101    21    20    1
   102    21    22    1
   103    42    43    1
   104    42    45    1
   105    43    44    2
   106    56    57    1
   107    29    28    1
   108    45    46    1
   109    22    23    2
   110    28    27    1
