@<TRIPOS>MOLECULE
tmp/3c4mB00.pdb
 191 187 0 0 0
SMALL
GASTEIGER

@<TRIPOS>ATOM
      1  N        -14.8140   38.6680   81.9890 N.3     9  ASN9       -0.1240
      2  CA       -16.2480   38.6430   82.3120 C.3     9  ASN9        0.1653
      3  C        -16.6260   37.5410   83.2970 C.2     9  ASN9        0.2266
      4  O        -16.0640   36.4450   83.2640 O.2     9  ASN9       -0.2867
      5  CB       -17.1070   38.5520   81.0460 C.3     9  ASN9        0.1155
      6  CG       -18.4630   39.1930   81.2340 C.2     9  ASN9        0.2627
      7  OD1      -18.6060   40.1550   81.9960 O.2     9  ASN9       -0.2716
      8  ND2      -19.4680   38.6680   80.5480 N.am    9  ASN9       -0.0877
      9  N        -19.0080   35.5940   83.4870 N.3    11  ASP11      -0.1225
     10  CA       -19.5740   34.3840   82.8800 C.3    11  ASP11       0.1805
     11  C        -18.4910   33.4360   82.3380 C.2    11  ASP11       0.2597
     12  O        -18.7890   32.2990   81.9560 O.2    11  ASP11      -0.2718
     13  CB       -20.6560   34.7150   81.8160 C.3    11  ASP11       0.1424
     14  CG       -20.1190   35.4900   80.5940 C.2    11  ASP11       0.3668
     15  OD1      -18.9120   35.8620   80.5320 O.co2  11  ASP11      -0.2456
     16  OD2      -20.9350   35.7310   79.6640 O.co2  11  ASP11      -0.2456
     17  N        -17.2450   33.9170   82.3230 N.am   12  LYS12      -0.1979
     18  CA       -16.0910   33.1540   81.8310 C.3    12  LYS12       0.1596
     19  C        -15.3670   32.4400   82.9750 C.2    12  LYS12       0.2287
     20  O        -15.5770   32.7570   84.1550 O.2    12  LYS12      -0.2864
     21  CB       -15.0920   34.0680   81.0920 C.3    12  LYS12       0.0298
     22  CG       -15.6730   34.9640   80.0030 C.3    12  LYS12       0.0038
     23  CD       -16.2880   34.1570   78.8900 C.3    12  LYS12       0.0206
     24  CE       -16.6020   35.0320   77.6740 C.3    12  LYS12       0.1093
     25  NZ       -17.8630   35.7970   77.8590 N.3    12  LYS12      -0.1314
     26  N        -16.3940   46.0450   80.1170 N.3    41  GLU41      -0.1245
     27  CA       -16.1800   46.5440   78.7560 C.3    41  GLU41       0.1567
     28  C        -16.4290   48.0560   78.6550 C.2    41  GLU41       0.2260
     29  O        -15.8470   48.7290   77.8000 O.2    41  GLU41      -0.2867
     30  CB       -16.9910   45.7360   77.7240 C.3    41  GLU41       0.0388
     31  CG       -18.4750   46.1130   77.5160 C.3    41  GLU41       0.1160
     32  CD       -19.4120   45.6440   78.6400 C.2    41  GLU41       0.3649
     33  OE1      -18.9400   45.3240   79.7530 O.co2  41  GLU41      -0.2457
     34  OE2      -20.6380   45.6090   78.4050 O.co2  41  GLU41      -0.2457
     35  N        -12.0750   40.4650   76.5250 N.3    59  TRP59      -0.1227
     36  CA       -13.4400   40.6490   76.0080 C.3    59  TRP59       0.1737
     37  C        -13.4960   40.1030   74.6040 C.2    59  TRP59       0.2595
     38  O        -12.4610   39.8780   73.9930 O.2    59  TRP59      -0.2718
     39  CB       -13.8690   42.1300   76.0180 C.3    59  TRP59       0.0564
     40  CG       -15.3690   42.2960   75.8780 C.ar   59  TRP59       0.0003
     41  CD1      -16.0650   42.5730   74.7360 C.ar   59  TRP59       0.0946
     42  CD2      -16.3460   42.1340   76.9160 C.ar   59  TRP59       0.0152
     43  NE1      -17.4170   42.6200   75.0010 N.ar   59  TRP59      -0.2442
     44  CE2      -17.6170   42.3570   76.3330 C.ar   59  TRP59       0.0810
     45  CE3      -16.2690   41.8440   78.2870 C.ar   59  TRP59       0.0012
     46  CZ2      -18.8080   42.2790   77.0710 C.ar   59  TRP59       0.0191
     47  CZ3      -17.4530   41.7710   79.0250 C.ar   59  TRP59       0.0001
     48  CH2      -18.7050   41.9910   78.4160 C.ar   59  TRP59       0.0015
     49  N        -14.6900   39.8890   74.0670 N.am   60  ALA60      -0.1980
     50  CA       -14.7790   39.5010   72.6660 C.3    60  ALA60       0.1597
     51  C        -14.1120   40.5940   71.8100 C.2    60  ALA60       0.2287
     52  O        -14.0550   41.7610   72.2170 O.2    60  ALA60      -0.2864
     53  CB       -16.2250   39.2910   72.2720 C.3    60  ALA60       0.0319
     54  N        -14.8550   42.3620   69.2340 N.3    62  ASP62      -0.1225
     55  CA       -15.6050   43.5250   68.7410 C.3    62  ASP62       0.1805
     56  C        -15.3280   44.8420   69.4870 C.2    62  ASP62       0.2597
     57  O        -15.3490   45.8980   68.8590 O.2    62  ASP62      -0.2718
     58  CB       -17.1170   43.2570   68.6560 C.3    62  ASP62       0.1424
     59  CG       -17.7740   43.0930   70.0410 C.2    62  ASP62       0.3668
     60  OD1      -17.3680   42.1880   70.8010 O.co2  62  ASP62      -0.2456
     61  OD2      -18.7120   43.8640   70.3460 O.co2  62  ASP62      -0.2456
     62  N        -15.0280   44.7870   70.7940 N.am   63  ARG63      -0.1979
     63  CA       -14.7690   46.0090   71.5660 C.3    63  ARG63       0.1597
     64  C        -13.3690   46.6080   71.3460 C.2    63  ARG63       0.2287
     65  O        -13.1200   47.7720   71.6950 O.2    63  ARG63      -0.2864
     66  CB       -14.9550   45.7520   73.0730 C.3    63  ARG63       0.0334
     67  CG       -16.3910   45.5220   73.4810 C.3    63  ARG63       0.0492
     68  CD       -17.1280   46.8100   73.7670 C.3    63  ARG63       0.2205
     69  NE       -18.5770   46.6220   73.6320 N.pl3  63  ARG63      -0.0865
     70  CZ       -19.4990   47.5070   74.0020 C.cat  63  ARG63       0.5346
     71  NH1      -19.1430   48.6620   74.5730 N.pl3  63  ARG63       0.1354
     72  NH2      -20.7860   47.2250   73.8070 N.pl3  63  ARG63       0.1354
     73  N        -16.3140   31.9780   69.9420 N.3   108  GLU108     -0.1245
     74  CA       -17.6230   31.7330   70.5550 C.3   108  GLU108      0.1567
     75  C        -18.7670   31.9860   69.5780 C.2   108  GLU108      0.2260
     76  O        -18.7590   32.9650   68.8230 O.2   108  GLU108     -0.2867
     77  CB       -17.8410   32.6350   71.7790 C.3   108  GLU108      0.0388
     78  CG       -16.5960   33.0180   72.5660 C.3   108  GLU108      0.1160
     79  CD       -16.8570   34.1580   73.5500 C.2   108  GLU108      0.3649
     80  OE1      -17.7890   34.9620   73.3190 O.co2 108  GLU108     -0.2457
     81  OE2      -16.1300   34.2520   74.5640 O.co2 108  GLU108     -0.2457
     82  N        -31.8110   35.0830   77.4460 N.3   147  ASN147     -0.1240
     83  CA       -31.5550   36.4690   77.8220 C.3   147  ASN147      0.1653
     84  C        -32.0750   37.4780   76.7840 C.2   147  ASN147      0.2266
     85  O        -31.5650   37.5540   75.6680 O.2   147  ASN147     -0.2867
     86  CB       -30.0550   36.6720   78.0660 C.3   147  ASN147      0.1155
     87  CG       -29.7290   38.0510   78.5910 C.2   147  ASN147      0.2627
     88  OD1      -30.6260   38.8280   78.9560 O.2   147  ASN147     -0.2716
     89  ND2      -28.4260   38.3650   78.6580 N.am  147  ASN147     -0.0877
     90  N        -29.8470   41.4680   76.5410 N.3   150  GLU150     -0.1231
     91  CA       -28.6470   41.7250   75.7610 C.3   150  GLU150      0.1684
     92  C        -28.8720   41.3480   74.2970 C.2   150  GLU150      0.2434
     93  O        -29.1880   40.1950   73.9900 O.2   150  GLU150     -0.2733
     94  CB       -27.4470   40.9970   76.3500 C.3   150  GLU150      0.0402
     95  CG       -26.9380   41.6230   77.6550 C.3   150  GLU150      0.1161
     96  CD       -26.2070   42.9600   77.4400 C.2   150  GLU150      0.3649
     97  OE1      -25.8640   43.3300   76.2870 O.co2 150  GLU150     -0.2457
     98  OE2      -25.9530   43.6400   78.4470 O.co2 150  GLU150     -0.2457
     99  N        -28.7130   42.3300   73.3910 N.am  151  PRO151     -0.2718
    100  CA       -29.0780   42.0830   72.0080 C.3   151  PRO151      0.1535
    101  C        -28.2290   40.9720   71.3630 C.2   151  PRO151      0.2599
    102  O        -28.6130   40.4410   70.3330 O.2   151  PRO151     -0.2715
    103  CB       -28.8360   43.4350   71.3320 C.3   151  PRO151      0.0310
    104  CG       -27.8500   44.1370   72.2140 C.3   151  PRO151      0.0237
    105  CD       -28.2020   43.6970   73.5930 C.3   151  PRO151      0.0939
    106  N        -27.1020   40.6170   71.9730 N.am  152  TYR152     -0.1960
    107  CA       -26.2770   39.5020   71.4940 C.3   152  TYR152      0.1771
    108  C        -27.0780   38.2290   71.2760 C.2   152  TYR152      0.2619
    109  O        -26.8380   37.4930   70.3110 O.2   152  TYR152     -0.2715
    110  CB       -25.1270   39.2390   72.4790 C.3   152  TYR152      0.0574
    111  CG       -24.1680   38.1030   72.1080 C.ar  152  TYR152     -0.0198
    112  CD1      -23.2490   38.2260   71.0660 C.ar  152  TYR152     -0.0009
    113  CD2      -24.1680   36.9260   72.8430 C.ar  152  TYR152     -0.0009
    114  CE1      -22.3700   37.1650   70.7480 C.ar  152  TYR152      0.0417
    115  CE2      -23.3060   35.8840   72.5540 C.ar  152  TYR152      0.0417
    116  CZ       -22.4130   35.9990   71.5170 C.ar  152  TYR152      0.1957
    117  OH       -21.5750   34.9150   71.2780 O.3   152  TYR152     -0.2866
    118  N        -28.0250   37.9670   72.1760 N.am  153  PHE153     -0.1974
    119  CA       -28.8050   36.7290   72.1510 C.3   153  PHE153      0.1639
    120  C        -30.0070   36.7890   71.2040 C.2   153  PHE153      0.2290
    121  O        -30.4860   35.7550   70.7600 O.2   153  PHE153     -0.2864
    122  CB       -29.2590   36.3580   73.5810 C.3   153  PHE153      0.0560
    123  CG       -28.1120   36.1760   74.5590 C.ar  153  PHE153     -0.0200
    124  CD1      -27.6660   34.9010   74.8980 C.ar  153  PHE153     -0.0042
    125  CD2      -27.4720   37.2770   75.1230 C.ar  153  PHE153     -0.0042
    126  CE1      -26.6030   34.7230   75.7770 C.ar  153  PHE153     -0.0003
    127  CE2      -26.4050   37.1150   76.0090 C.ar  153  PHE153     -0.0003
    128  CZ       -25.9690   35.8250   76.3370 C.ar  153  PHE153     -0.0000
    129  N        -30.2220   37.0120   81.7880 N.3   207  TYR207     -0.1241
    130  CA       -29.3210   35.8590   81.7260 C.3   207  TYR207      0.1605
    131  C        -29.5450   34.8660   82.8720 C.2   207  TYR207      0.2264
    132  O        -29.6770   33.6600   82.6410 O.2   207  TYR207     -0.2867
    133  CB       -27.8530   36.2980   81.7010 C.3   207  TYR207      0.0534
    134  CG       -26.9120   35.1360   81.4400 C.ar  207  TYR207     -0.0201
    135  CD1      -26.4230   34.3440   82.4900 C.ar  207  TYR207     -0.0009
    136  CD2      -26.5240   34.8190   80.1450 C.ar  207  TYR207     -0.0009
    137  CE1      -25.5720   33.2650   82.2430 C.ar  207  TYR207      0.0417
    138  CE2      -25.6680   33.7530   79.8870 C.ar  207  TYR207      0.0417
    139  CZ       -25.2010   32.9810   80.9350 C.ar  207  TYR207      0.1957
    140  OH       -24.3510   31.9360   80.6550 O.3   207  TYR207     -0.2866
    141  N        -19.5860   28.8800   77.3890 N.3   227  TRP227     -0.1241
    142  CA       -19.3340   29.2160   78.7970 C.3   227  TRP227      0.1605
    143  C        -20.4100   28.6950   79.7560 C.2   227  TRP227      0.2264
    144  O        -20.1360   28.4550   80.9390 O.2   227  TRP227     -0.2867
    145  CB       -19.1740   30.7270   78.9780 C.3   227  TRP227      0.0550
    146  CG       -20.3220   31.5060   78.4340 C.ar  227  TRP227      0.0003
    147  CD1      -21.4900   31.8010   79.0780 C.ar  227  TRP227      0.0946
    148  CD2      -20.4330   32.0610   77.1230 C.ar  227  TRP227      0.0152
    149  NE1      -22.3160   32.5170   78.2530 N.ar  227  TRP227     -0.2442
    150  CE2      -21.6960   32.6940   77.0450 C.ar  227  TRP227      0.0810
    151  CE3      -19.5890   32.0900   76.0040 C.ar  227  TRP227      0.0012
    152  CZ2      -22.1370   33.3540   75.8950 C.ar  227  TRP227      0.0191
    153  CZ3      -20.0250   32.7440   74.8590 C.ar  227  TRP227      0.0001
    154  CH2      -21.2950   33.3630   74.8080 C.ar  227  TRP227      0.0015
    155  N        -17.9290   35.7430   68.0720 N.3   257  GLY257     -0.1225
    156  CA       -16.9390   36.4810   68.8400 C.3   257  GLY257      0.1811
    157  C        -15.6580   35.7000   69.0160 C.2   257  GLY257      0.2280
    158  O        -15.6750   34.4710   69.1300 O.2   257  GLY257     -0.2866
    159  N        -18.0570   39.2020   64.0880 N.3   327  MET327     -0.1245
    160  CA       -18.4090   40.5930   64.4120 C.3   327  MET327      0.1570
    161  C        -17.3430   41.5030   63.8290 C.2   327  MET327      0.2261
    162  O        -16.1700   41.1160   63.8190 O.2   327  MET327     -0.2867
    163  CB       -18.4400   40.8200   65.9330 C.3   327  MET327      0.0387
    164  CG       -19.6730   40.2720   66.6280 C.3   327  MET327      0.0595
    165  SD       -19.7550   40.6840   68.3640 S.3   327  MET327     -0.1393
    166  CE       -18.7810   39.3680   69.0520 C.3   327  MET327      0.0692
    167  N        -24.2970   48.4340   69.1530 N.3   337  TRP337     -0.1241
    168  CA       -24.8370   47.5960   70.2200 C.3   337  TRP337      0.1605
    169  C        -25.8120   48.3710   71.1040 C.2   337  TRP337      0.2264
    170  O        -26.8920   47.8710   71.3960 O.2   337  TRP337     -0.2867
    171  CB       -23.7160   46.9820   71.0790 C.3   337  TRP337      0.0550
    172  CG       -23.0510   45.7580   70.4620 C.ar  337  TRP337      0.0003
    173  CD1      -21.7000   45.5560   70.2780 C.ar  337  TRP337      0.0946
    174  CD2      -23.7020   44.5750   69.9670 C.ar  337  TRP337      0.0152
    175  NE1      -21.4830   44.3240   69.7030 N.ar  337  TRP337     -0.2442
    176  CE2      -22.6870   43.7020   69.5050 C.ar  337  TRP337      0.0810
    177  CE3      -25.0430   44.1630   69.8770 C.ar  337  TRP337      0.0012
    178  CZ2      -22.9710   42.4430   68.9640 C.ar  337  TRP337      0.0191
    179  CZ3      -25.3200   42.9120   69.3390 C.ar  337  TRP337      0.0001
    180  CH2      -24.2850   42.0670   68.8930 C.ar  337  TRP337      0.0015
    181  N        -29.5920   47.3540   71.5230 N.3   341  ARG341     -0.1245
    182  CA       -30.0540   47.1280   72.9190 C.3   341  ARG341      0.1563
    183  C        -31.3510   47.9070   73.2250 C.2   341  ARG341      0.2260
    184  O        -32.3510   47.3250   73.6730 O.2   341  ARG341     -0.2867
    185  CB       -28.9480   47.4960   73.9250 C.3   341  ARG341      0.0307
    186  CG       -29.2210   47.0940   75.3870 C.3   341  ARG341      0.0489
    187  CD       -28.0310   47.4550   76.3240 C.3   341  ARG341      0.2205
    188  NE       -26.8540   46.5920   76.1170 N.pl3 341  ARG341     -0.0865
    189  CZ       -25.7420   46.9440   75.4540 C.cat 341  ARG341      0.5346
    190  NH1      -25.6020   48.1700   74.9380 N.pl3 341  ARG341      0.1354
    191  NH2      -24.7470   46.0700   75.3110 N.pl3 341  ARG341      0.1354
@<TRIPOS>BOND
     1   162   161    2
     2   161   160    1
     3   159   160    1
     4   160   163    1
     5   163   164    1
     6   164   165    1
     7   155   156    1
     8   165   166    1
     9    58    55    1
    10    58    59    1
    11    55    54    1
    12    55    56    1
    13    76    75    2
    14   156   157    1
    15    57    56    2
    16   180   178   ar
    17   180   179   ar
    18   178   176   ar
    19   157   158    2
    20   167   168    1
    21   179   177   ar
    22    56    62   am
    23   176   175   ar
    24   176   174   ar
    25    75    74    1
    26   175   173   ar
    27   177   174   ar
    28    73    74    1
    29   174   172   ar
    30    59    61   ar
    31    59    60   ar
    32   168   171    1
    33   168   169    1
    34   173   172   ar
    35   109   108    2
    36   102   101    2
    37   172   171    1
    38    74    77    1
    39   114   112   ar
    40   114   116   ar
    41   121   120    2
    42    62    63    1
    43   112   111   ar
    44   169   170    2
    45   120   119    1
    46   108   107    1
    47   108   118   am
    48   117   116    1
    49   103   100    1
    50   103   104    1
    51    64    63    1
    52    64    65    2
    53   101   106   am
    54   101   100    1
    55   107   106    1
    56   107   110    1
    57   116   115   ar
    58   181   182    1
    59    63    66    1
    60    77    78    1
    61    51    52    2
    62    51    50    1
    63   100    99    1
    64   111   110    1
    65   111   113   ar
    66   119   118    1
    67   119   122    1
    68   104   105    1
    69    53    50    1
    70   115   113   ar
    71    78    79    1
    72    50    49    1
    73   182   183    1
    74   182   185    1
    75    66    67    1
    76   183   184    2
    77    80    79   ar
    78    99   105    1
    79    99    92   am
    80    67    68    1
    81    79    81   ar
    82   122   123    1
    83    69    68    1
    84    69    70    2
    85    72    70    1
    86   185   186    1
    87    93    92    2
    88    38    37    2
    89    70    71    1
    90    49    37   am
    91    92    91    1
    92   123   124   ar
    93   123   125   ar
    94    37    36    1
    95    41    43   ar
    96    41    40   ar
    97   154   153   ar
    98   154   152   ar
    99   153   151   ar
   100   124   126   ar
   101   190   189    1
   102    43    44   ar
   103   125   127   ar
   104   191   189    1
   105   186   187    1
   106   189   188    2
   107    85    84    2
   108    91    94    1
   109    91    90    1
   110   126   128   ar
   111    40    39    1
   112    40    42   ar
   113   152   150   ar
   114   151   148   ar
   115    36    39    1
   116    36    35    1
   117   127   128   ar
   118   188   187    1
   119    97    96   ar
   120    44    42   ar
   121    44    46   ar
   122    94    95    1
   123    84    83    1
   124    42    45   ar
   125   150   148   ar
   126   150   149   ar
   127    46    48   ar
   128   148   146   ar
   129   141   142    1
   130    96    95    1
   131    96    98   ar
   132    82    83    1
   133    31    30    1
   134    31    32    1
   135    24    25    1
   136    24    23    1
   137    30    27    1
   138    29    28    2
   139    83    86    1
   140    86    87    1
   141   149   147   ar
   142    45    47   ar
   143    34    32   ar
   144    48    47   ar
   145   146   145    1
   146   146   147   ar
   147    87    89   am
   148    87    88    2
   149    32    33   ar
   150    28    27    1
   151    27    26    1
   152   142   145    1
   153   142   143    1
   154    23    22    1
   155    16    14   ar
   156   143   144    2
   157   138   136   ar
   158   138   139   ar
   159    22    21    1
   160   136   134   ar
   161    15    14   ar
   162     8     6   am
   163    14    13    1
   164   140   139    1
   165   139   137   ar
   166     5     6    1
   167     5     2    1
   168    21    18    1
   169     6     7    2
   170   134   133    1
   171   134   135   ar
   172   133   130    1
   173   130   129    1
   174   130   131    1
   175    13    10    1
   176    18    17    1
   177    18    19    1
   178    12    11    2
   179     1     2    1
   180   137   135   ar
   181     2     3    1
   182    17    11   am
   183    11    10    1
   184   132   131    2
   185    10     9    1
   186    19    20    2
   187     4     3    2
