@<TRIPOS>MOLECULE
tmp/3c4nB00.pdb
 170 161 0 0 0
SMALL
GASTEIGER

@<TRIPOS>ATOM
      1  N         52.4930   52.5000  101.3200 N.3     9  ILE9       -0.1231
      2  CA        53.0460   51.9060  102.5390 C.3     9  ILE9        0.1692
      3  C         51.8980   51.3370  103.3490 C.2     9  ILE9        0.2593
      4  O         51.0210   52.0740  103.7870 O.2     9  ILE9       -0.2718
      5  CB        53.7920   52.9640  103.4000 C.3     9  ILE9        0.0266
      6  CG1       54.8670   53.6510  102.5460 C.3     9  ILE9        0.0019
      7  CG2       54.3990   52.2910  104.6610 C.3     9  ILE9        0.0020
      8  CD1       55.5340   54.8250  103.2100 C.3     9  ILE9        0.0001
      9  N         51.8990   50.0210  103.5320 N.am   10  GLY10      -0.1942
     10  CA        50.8390   49.3780  104.2920 C.3    10  GLY10       0.2014
     11  C         49.9180   48.5340  103.4300 C.2    10  GLY10       0.2639
     12  O         49.2280   49.0560  102.5460 O.2    10  GLY10      -0.2714
     13  N         49.8970   47.2290  103.6750 N.am   11  ALA11      -0.1963
     14  CA        49.0400   46.3660  102.8850 C.3    11  ALA11       0.1728
     15  C         47.8220   45.8400  103.6400 C.2    11  ALA11       0.2617
     16  O         47.3500   44.7400  103.3700 O.2    11  ALA11      -0.2715
     17  CB        49.8530   45.2040  102.2960 C.3    11  ALA11       0.0334
     18  N         47.3060   46.6230  104.5780 N.am   12  GLY12      -0.1940
     19  CA        46.1110   46.2110  105.3060 C.3    12  GLY12       0.2014
     20  C         44.9010   46.5580  104.4510 C.2    12  GLY12       0.2638
     21  O         45.0770   46.8520  103.2720 O.2    12  GLY12      -0.2714
     22  N         43.6930   46.5410  105.0110 N.am   13  ARG13      -0.1977
     23  CA        42.4920   46.8570  104.2320 C.3    13  ARG13       0.1597
     24  C         42.5850   48.1810  103.4490 C.2    13  ARG13       0.2287
     25  O         42.2230   48.2440  102.2790 O.2    13  ARG13      -0.2864
     26  CB        41.2460   46.9030  105.1370 C.3    13  ARG13       0.0334
     27  CG        41.1660   48.1390  106.0320 C.3    13  ARG13       0.0492
     28  CD        40.0930   48.0260  107.1060 C.3    13  ARG13       0.2205
     29  NE        38.7880   47.6320  106.5750 N.pl3  13  ARG13      -0.0865
     30  CZ        37.7820   47.2120  107.3350 C.cat  13  ARG13       0.5346
     31  NH1       36.6270   46.8630  106.7950 N.pl3  13  ARG13       0.1354
     32  NH2       37.9360   47.1390  108.6460 N.pl3  13  ARG13       0.1354
     33  N         45.4910   50.3350  102.6680 N.3    14  GLY14      -0.1225
     34  CA        46.5420   50.3690  101.6630 C.3    14  GLY14       0.1811
     35  C         46.3150   49.3970  100.5110 C.2    14  GLY14       0.2280
     36  O         46.5380   49.7060   99.3410 O.2    14  GLY14      -0.2866
     37  N         54.4650   48.3040   99.8550 N.3    33  VAL33      -0.1231
     38  CA        55.4000   47.8910  100.9050 C.3    33  VAL33       0.1692
     39  C         54.6940   47.5420  102.2040 C.2    33  VAL33       0.2592
     40  O         53.8950   48.3120  102.7350 O.2    33  VAL33      -0.2718
     41  CB        56.4610   48.9820  101.2030 C.3    33  VAL33       0.0266
     42  CG1       57.5630   48.4160  102.1210 C.3    33  VAL33       0.0020
     43  CG2       57.0520   49.4750   99.9100 C.3    33  VAL33       0.0020
     44  N         55.0110   46.3640  102.7100 N.am   34  GLU34      -0.1966
     45  CA        54.4160   45.8740  103.9230 C.3    34  GLU34       0.1733
     46  C         55.5150   45.2650  104.7890 C.2    34  GLU34       0.2616
     47  O         56.3550   44.5250  104.2870 O.2    34  GLU34      -0.2715
     48  CB        53.3710   44.8380  103.5350 C.3    34  GLU34       0.0429
     49  CG        53.0050   43.9090  104.6250 C.3    34  GLU34       0.1163
     50  CD        52.3580   44.6170  105.7760 C.2    34  GLU34       0.3649
     51  OE1       52.5620   44.1530  106.9170 O.co2  34  GLU34      -0.2457
     52  OE2       51.6390   45.6160  105.5490 O.co2  34  GLU34      -0.2457
     53  N         55.5230   45.5770  106.0800 N.am   35  GLU35      -0.1977
     54  CA        56.5530   45.0340  106.9520 C.3    35  GLU35       0.1602
     55  C         56.2200   43.6400  107.4440 C.2    35  GLU35       0.2287
     56  O         57.0950   42.9020  107.8960 O.2    35  GLU35      -0.2864
     57  CB        56.8070   45.9600  108.1420 C.3    35  GLU35       0.0415
     58  CG        55.6150   46.1920  109.0540 C.3    35  GLU35       0.1163
     59  CD        55.9420   47.1670  110.1760 C.2    35  GLU35       0.3649
     60  OE1       55.0300   47.4460  110.9960 O.co2  35  GLU35      -0.2457
     61  OE2       57.1090   47.6450  110.2280 O.co2  35  GLU35      -0.2457
     62  N         48.4890   39.8110  106.9150 N.3    40  ASN40      -0.1240
     63  CA        49.2680   40.0930  108.1140 C.3    40  ASN40       0.1653
     64  C         48.3470   39.9100  109.3170 C.2    40  ASN40       0.2266
     65  O         47.5170   40.7730  109.5950 O.2    40  ASN40      -0.2867
     66  CB        49.8170   41.5210  108.0710 C.3    40  ASN40       0.1155
     67  CG        50.5890   41.8850  109.3250 C.2    40  ASN40       0.2627
     68  OD1       51.1850   41.0200  109.9770 O.2    40  ASN40      -0.2716
     69  ND2       50.5920   43.1690  109.6650 N.am   40  ASN40      -0.0877
     70  N         47.9540   42.6340  112.1810 N.3    43  GLY43      -0.1210
     71  CA        47.3560   43.9340  111.9100 C.3    43  GLY43       0.1956
     72  C         45.9340   44.0940  112.4240 C.2    43  GLY43       0.2612
     73  O         45.3550   43.1450  112.9540 O.2    43  GLY43      -0.2717
     74  N         45.3700   45.2920  112.2540 N.am   44  ALA44      -0.1965
     75  CA        44.0080   45.5840  112.6990 C.3    44  ALA44       0.1728
     76  C         42.9680   44.9820  111.7710 C.2    44  ALA44       0.2616
     77  O         41.9470   44.4640  112.2170 O.2    44  ALA44      -0.2715
     78  CB        43.7950   47.0780  112.7900 C.3    44  ALA44       0.0334
     79  N         43.2410   45.0470  110.4740 N.am   45  THR45      -0.1951
     80  CA        42.3340   44.5280  109.4620 C.3    45  THR45       0.1897
     81  C         41.8690   43.0970  109.7080 C.2    45  THR45       0.2313
     82  O         40.6990   42.7710  109.5020 O.2    45  THR45      -0.2863
     83  CB        42.9840   44.5990  108.0810 C.3    45  THR45       0.1794
     84  OG1       43.1260   45.9710  107.7040 O.3    45  THR45      -0.2208
     85  CG2       42.1380   43.8810  107.0620 C.3    45  THR45       0.0378
     86  N         59.1590   44.2370  104.9560 N.3   159  THR159     -0.1203
     87  CA        59.9960   45.4180  104.7860 C.3   159  THR159      0.1994
     88  C         59.3890   46.6380  105.4920 C.2   159  THR159      0.2618
     89  O         58.2330   47.0090  105.2570 O.2   159  THR159     -0.2717
     90  CB        60.1330   45.7530  103.3040 C.3   159  THR159      0.1784
     91  OG1       60.2970   44.5430  102.5580 O.3   159  THR159     -0.2211
     92  CG2       61.3140   46.6570  103.0690 C.3   159  THR159      0.0376
     93  N         60.1760   47.2590  106.3570 N.am  160  ARG160     -0.1965
     94  CA        59.7240   48.4300  107.0770 C.3   160  ARG160      0.1729
     95  C         60.1240   49.6500  106.2650 C.2   160  ARG160      0.2616
     96  O         61.2850   49.8170  105.8990 O.2   160  ARG160     -0.2715
     97  CB        60.3620   48.4650  108.4650 C.3   160  ARG160      0.0348
     98  CG        59.9460   49.6430  109.3280 C.3   160  ARG160      0.0492
     99  CD        60.4930   49.5060  110.7480 C.3   160  ARG160      0.2205
    100  NE        61.9530   49.4790  110.7960 N.pl3 160  ARG160     -0.0865
    101  CZ        62.7390   50.5230  110.5370 C.cat 160  ARG160      0.5346
    102  NH1       62.2060   51.6910  110.2050 N.pl3 160  ARG160      0.1354
    103  NH2       64.0640   50.4070  110.6190 N.pl3 160  ARG160      0.1354
    104  N         59.1420   50.4840  105.9560 N.am  161  ALA161     -0.1977
    105  CA        59.3890   51.6860  105.1950 C.3   161  ALA161      0.1597
    106  C         59.5980   52.8510  106.1660 C.2   161  ALA161      0.2287
    107  O         58.9410   52.9380  107.2080 O.2   161  ALA161     -0.2864
    108  CB        58.2130   51.9580  104.2660 C.3   161  ALA161      0.0319
    109  N         49.5820   54.3530  104.3770 N.3   190  ALA190     -0.1231
    110  CA        48.4780   53.5140  104.8330 C.3   190  ALA190      0.1694
    111  C         48.9860   52.5510  105.9050 C.2   190  ALA190      0.2592
    112  O         48.6680   51.3620  105.8760 O.2   190  ALA190     -0.2718
    113  CB        47.9150   52.7330  103.6720 C.3   190  ALA190      0.0304
    114  N         49.7690   53.0650  106.8480 N.am  191  ALA191     -0.1966
    115  CA        50.3150   52.2260  107.9000 C.3   191  ALA191      0.1728
    116  C         49.3510   52.0380  109.0630 C.2   191  ALA191      0.2617
    117  O         49.7270   51.5350  110.1210 O.2   191  ALA191     -0.2715
    118  CB        51.6210   52.8120  108.3980 C.3   191  ALA191      0.0334
    119  N         48.0970   52.4180  108.8560 N.am  192  GLY192     -0.1940
    120  CA        47.1160   52.2850  109.9140 C.3   192  GLY192      0.2014
    121  C         47.4870   53.1910  111.0760 C.2   192  GLY192      0.2639
    122  O         47.9860   54.2970  110.8790 O.2   192  GLY192     -0.2714
    123  N         47.2550   52.7020  112.2870 N.am  193  ALA193     -0.1963
    124  CA        47.5420   53.4420  113.5070 C.3   193  ALA193      0.1728
    125  C         48.9860   53.9260  113.5720 C.2   193  ALA193      0.2616
    126  O         49.2840   54.9030  114.2550 O.2   193  ALA193     -0.2715
    127  CB        47.2300   52.5780  114.7100 C.3   193  ALA193      0.0334
    128  N         49.8860   53.2560  112.8620 N.am  194  ALA194     -0.1977
    129  CA        51.2840   53.6630  112.8790 C.3   194  ALA194      0.1597
    130  C         51.5630   54.7640  111.8510 C.2   194  ALA194      0.2287
    131  O         52.6920   55.2490  111.7390 O.2   194  ALA194     -0.2864
    132  CB        52.1950   52.4430  112.6180 C.3   194  ALA194      0.0319
    133  N         54.7770   57.5490  111.7860 N.3   198  LEU198     -0.1245
    134  CA        55.6330   57.3720  110.6160 C.3   198  LEU198      0.1561
    135  C         56.0670   58.7110  110.0360 C.2   198  LEU198      0.2260
    136  O         57.2610   58.9730  109.8990 O.2   198  LEU198     -0.2867
    137  CB        54.9050   56.5810  109.5340 C.3   198  LEU198      0.0270
    138  CG        55.7800   56.2530  108.3320 C.3   198  LEU198      0.0019
    139  CD1       56.8370   55.2420  108.7510 C.3   198  LEU198      0.0001
    140  CD2       54.9280   55.6770  107.2170 C.3   198  LEU198      0.0001
    141  N         46.0040   47.6480  117.3240 N.3   307  TRP307     -0.1241
    142  CA        45.9360   49.0990  117.4530 C.3   307  TRP307      0.1605
    143  C         45.1750   49.7040  116.2760 C.2   307  TRP307      0.2264
    144  O         45.4910   49.4290  115.1220 O.2   307  TRP307     -0.2867
    145  CB        47.3430   49.7110  117.5130 C.3   307  TRP307      0.0550
    146  CG        48.0590   49.4840  118.8040 C.ar  307  TRP307      0.0003
    147  CD1       48.9060   48.4550  119.1110 C.ar  307  TRP307      0.0946
    148  CD2       48.0070   50.3200  119.9670 C.ar  307  TRP307      0.0152
    149  NE1       49.3900   48.6030  120.3910 N.ar  307  TRP307     -0.2442
    150  CE2       48.8530   49.7390  120.9390 C.ar  307  TRP307      0.0810
    151  CE3       47.3270   51.5020  120.2830 C.ar  307  TRP307      0.0012
    152  CZ2       49.0400   50.3070  122.2060 C.ar  307  TRP307      0.0191
    153  CZ3       47.5120   52.0680  121.5450 C.ar  307  TRP307      0.0001
    154  CH2       48.3620   51.4690  122.4900 C.ar  307  TRP307      0.0015
    155  N         46.5160   58.0780  104.8030 N.3   331  LEU331     -0.1245
    156  CA        45.2580   57.3400  104.7200 C.3   331  LEU331      0.1561
    157  C         44.9210   56.7410  106.0660 C.2   331  LEU331      0.2260
    158  O         45.7090   55.9880  106.6310 O.2   331  LEU331     -0.2867
    159  CB        45.3920   56.2100  103.6920 C.3   331  LEU331      0.0270
    160  CG        44.2050   55.2930  103.3710 C.3   331  LEU331      0.0019
    161  CD1       42.9830   56.1400  103.0510 C.3   331  LEU331      0.0001
    162  CD2       44.5420   54.3880  102.1860 C.3   331  LEU331      0.0001
    163  N         41.9230   54.6390  108.3420 N.3   333  GLY333     -0.1210
    164  CA        40.7230   53.8170  108.3310 C.3   333  GLY333      0.1956
    165  C         39.9610   54.1180  109.6130 C.2   333  GLY333      0.2612
    166  O         39.1440   55.0310  109.6330 O.2   333  GLY333     -0.2717
    167  N         40.2120   53.3660  110.6860 N.am  334  GLY334     -0.1956
    168  CA        39.5330   53.6480  111.9440 C.3   334  GLY334      0.1869
    169  C         38.3300   52.7870  112.2960 C.2   334  GLY334      0.2309
    170  O         37.9150   51.9470  111.5000 O.2   334  GLY334     -0.2863
@<TRIPOS>BOND
     1    36    35    2
     2    37    38    1
     3    43    41    1
     4    35    34    1
     5    38    41    1
     6    38    39    1
     7    41    42    1
     8     1     2    1
     9    34    33    1
    10   162   160    1
    11    39    44   am
    12    39    40    2
    13    25    24    2
    14    17    14    1
    15     2     3    1
    16     2     5    1
    17     6     8    1
    18     6     5    1
    19    12    11    2
    20    91    90    1
    21    44    45    1
    22    14    15    1
    23    14    13    1
    24   161   160    1
    25    92    90    1
    26    21    20    2
    27    90    87    1
    28     3     9   am
    29     3     4    2
    30    16    15    2
    31   160   159    1
    32     5     7    1
    33    11    13   am
    34    11    10    1
    35    24    23    1
    36     9    10    1
    37    48    45    1
    38    48    49    1
    39    15    18   am
    40   113   110    1
    41   159   156    1
    42    45    46    1
    43    23    22    1
    44    23    26    1
    45   108   105    1
    46    47    46    2
    47   109   110    1
    48    20    22   am
    49    20    19    1
    50    18    19    1
    51    49    50    1
    52   156   155    1
    53   156   157    1
    54    87    86    1
    55    87    88    1
    56    46    53   am
    57   110   111    1
    58    26    27    1
    59   105   104    1
    60   105   106    1
    61    89    88    2
    62    88    93   am
    63    52    50   ar
    64    50    51   ar
    65   112   111    2
    66    96    95    2
    67   111   114   am
    68   104    95   am
    69    27    28    1
    70   157   158    2
    71    53    54    1
    72   106   107    2
    73    95    94    1
    74    93    94    1
    75    29    28    1
    76    29    30    2
    77    31    30    1
    78   114   115    1
    79    62    63    1
    80    54    55    1
    81    54    57    1
    82    85    83    1
    83    94    97    1
    84   140   138    1
    85    30    32    1
    86    55    56    2
    87    84    83    1
    88   115   118    1
    89   115   116    1
    90    66    63    1
    91    66    67    1
    92    83    80    1
    93    63    64    1
    94    57    58    1
    95   164   163    1
    96   164   165    1
    97   138   139    1
    98   138   137    1
    99    97    98    1
   100   119   116   am
   101   119   120    1
   102    58    59    1
   103   116   117    2
   104    64    65    2
   105    67    69   am
   106    67    68    2
   107    98    99    1
   108    80    81    1
   109    80    79    1
   110    82    81    2
   111   137   134    1
   112   165   166    2
   113   165   167   am
   114   136   135    2
   115   120   121    1
   116   135   134    1
   117    59    61   ar
   118    59    60   ar
   119   102   101    1
   120    79    76   am
   121   101   103    1
   122   101   100    2
   123   134   133    1
   124   167   168    1
   125    99   100    1
   126   122   121    2
   127   121   123   am
   128   170   169    2
   129   131   130    2
   130    76    77    2
   131    76    75    1
   132   130   129    1
   133    71    70    1
   134    71    72    1
   135   168   169    1
   136    74    72   am
   137    74    75    1
   138   123   124    1
   139    72    73    2
   140   132   129    1
   141    75    78    1
   142   128   129    1
   143   128   125   am
   144   124   125    1
   145   124   127    1
   146   125   126    2
   147   144   143    2
   148   143   142    1
   149   141   142    1
   150   142   145    1
   151   145   146    1
   152   146   147   ar
   153   146   148   ar
   154   147   149   ar
   155   148   151   ar
   156   148   150   ar
   157   151   153   ar
   158   149   150   ar
   159   150   152   ar
   160   153   154   ar
   161   152   154   ar
