@<TRIPOS>MOLECULE
tmp/3c4vB01.pdb
 126 120 0 0 0
SMALL
GASTEIGER

@<TRIPOS>ATOM
      1  N        100.6660   36.0320   -3.9840 N.3     9  HIS9       -0.1226
      2  CA       100.4040   37.3280   -3.3880 C.3     9  HIS9        0.1752
      3  C         98.9760   37.8220   -3.5090 C.2     9  HIS9        0.2596
      4  O         98.6390   38.8760   -2.9700 O.2     9  HIS9       -0.2718
      5  CB       101.3640   38.3680   -3.9550 C.3     9  HIS9        0.0759
      6  CG       100.9450   38.9040   -5.2800 C.ar    9  HIS9        0.0818
      7  ND1      101.1160   38.2000   -6.4560 N.ar    9  HIS9       -0.2268
      8  CD2      100.3350   40.0660   -5.6150 C.ar    9  HIS9        0.1154
      9  CE1      100.6400   38.9100   -7.4590 C.ar    9  HIS9        0.1986
     10  NE2      100.1610   40.0460   -6.9760 N.ar    9  HIS9       -0.2212
     11  N         98.1390   37.0790   -4.2180 N.am   10  THR10      -0.1953
     12  CA        96.7330   37.4510   -4.3710 C.3    10  THR10       0.1897
     13  C         95.9340   36.2140   -4.7110 C.2    10  THR10       0.2313
     14  O         96.4350   35.3110   -5.3650 O.2    10  THR10      -0.2863
     15  CB        96.5120   38.5960   -5.4020 C.3    10  THR10       0.1794
     16  OG1       95.1410   39.0330   -5.3680 O.3    10  THR10      -0.2208
     17  CG2       96.8760   38.1730   -6.8110 C.3    10  THR10       0.0378
     18  N         95.1750   44.2550   -4.8810 N.3    20  ASP20      -0.1239
     19  CA        96.0490   43.5160   -5.7650 C.3    20  ASP20       0.1674
     20  C         95.3020   42.5320   -6.6900 C.2    20  ASP20       0.2266
     21  O         95.9300   41.7430   -7.3850 O.2    20  ASP20      -0.2867
     22  CB        97.1530   42.8300   -4.9540 C.3    20  ASP20       0.1410
     23  CG        98.0060   43.8250   -4.1660 C.2    20  ASP20       0.3668
     24  OD1       98.2530   44.9520   -4.6690 O.co2  20  ASP20      -0.2456
     25  OD2       98.4350   43.4790   -3.0340 O.co2  20  ASP20      -0.2456
     26  N         93.0640   41.5890   -9.9310 N.3    22  GLY22      -0.1210
     27  CA        92.7240   42.0730  -11.2680 C.3    22  GLY22       0.1956
     28  C         92.6830   40.9570  -12.2930 C.2    22  GLY22       0.2612
     29  O         92.2380   39.8470  -11.9910 O.2    22  GLY22      -0.2717
     30  N         93.1540   41.2580  -13.5070 N.am   23  GLY23      -0.1942
     31  CA        93.0770   40.3340  -14.6470 C.3    23  GLY23       0.2014
     32  C         93.8260   39.0200  -14.4630 C.2    23  GLY23       0.2639
     33  O         93.4110   37.9800  -14.9780 O.2    23  GLY23      -0.2714
     34  N         94.9330   39.0500  -13.7320 N.am   24  MET24      -0.1963
     35  CA        95.6340   37.8090  -13.4470 C.3    24  MET24       0.1736
     36  C         94.7680   36.8280  -12.6260 C.2    24  MET24       0.2616
     37  O         94.7900   35.6090  -12.8720 O.2    24  MET24      -0.2715
     38  CB        96.9510   38.0820  -12.7360 C.3    24  MET24       0.0427
     39  CG        97.6360   36.8100  -12.2990 C.3    24  MET24       0.0599
     40  SD        99.1560   37.1010  -11.4160 S.3    24  MET24      -0.1393
     41  CE        98.5470   37.3000   -9.7560 C.3    24  MET24       0.0692
     42  N         94.0090   37.3670  -11.6610 N.am   25  ASN25      -0.1972
     43  CA        93.1160   36.5640  -10.8290 C.3    25  ASN25       0.1688
     44  C         92.0100   35.9020  -11.6310 C.2    25  ASN25       0.2292
     45  O         91.7560   34.7120  -11.4640 O.2    25  ASN25      -0.2864
     46  CB        92.5060   37.3900   -9.6950 C.3    25  ASN25       0.1181
     47  CG        93.5480   38.1170   -8.8740 C.2    25  ASN25       0.2629
     48  OD1       94.3130   38.9460   -9.3970 O.2    25  ASN25      -0.2716
     49  ND2       93.5720   37.8290   -7.5750 N.am   25  ASN25      -0.0877
     50  N        102.1950   43.8200   -0.9610 N.3    78  LYS78      -0.1245
     51  CA       102.8630   43.1320   -2.0620 C.3    78  LYS78       0.1561
     52  C        104.3830   43.3150   -2.1020 C.2    78  LYS78       0.2260
     53  O        105.0960   42.3450   -2.3430 O.2    78  LYS78      -0.2867
     54  CB       102.2660   43.5670   -3.3970 C.3    78  LYS78       0.0271
     55  CG       102.8090   42.7870   -4.5960 C.3    78  LYS78       0.0035
     56  CD       102.2830   43.3400   -5.9030 C.3    78  LYS78       0.0206
     57  CE       102.9110   44.6780   -6.2160 C.3    78  LYS78       0.1093
     58  NZ       102.3050   45.2540   -7.4290 N.3    78  LYS78      -0.1314
     59  N        103.1060   35.0640  -11.8640 N.3   110  TYR110     -0.1241
     60  CA       103.8040   36.2240  -11.2820 C.3   110  TYR110      0.1605
     61  C        105.1330   35.8010  -10.6240 C.2   110  TYR110      0.2264
     62  O        105.2830   34.6670  -10.1800 O.2   110  TYR110     -0.2867
     63  CB       102.8710   36.9770  -10.3280 C.3   110  TYR110      0.0534
     64  CG       103.2580   38.3890   -9.9530 C.ar  110  TYR110     -0.0201
     65  CD1      103.1420   39.4460  -10.8650 C.ar  110  TYR110     -0.0009
     66  CD2      103.6820   38.6800   -8.6550 C.ar  110  TYR110     -0.0009
     67  CE1      103.4810   40.7570  -10.4900 C.ar  110  TYR110      0.0417
     68  CE2      104.0200   39.9710   -8.2680 C.ar  110  TYR110      0.0417
     69  CZ       103.9220   41.0040   -9.1800 C.ar  110  TYR110      0.1957
     70  OH       104.2600   42.2690   -8.7600 O.3   110  TYR110     -0.2866
     71  N        102.6460   37.5050  -16.3660 N.3   133  HIS133     -0.1226
     72  CA       101.5740   38.5180  -16.3580 C.3   133  HIS133      0.1752
     73  C        102.0540   39.9660  -16.5390 C.2   133  HIS133      0.2596
     74  O        101.6560   40.6250  -17.4950 O.2   133  HIS133     -0.2718
     75  CB       100.6380   38.3550  -15.1690 C.3   133  HIS133      0.0759
     76  CG        99.9700   37.0200  -15.1210 C.ar  133  HIS133      0.0818
     77  ND1       98.8230   36.7360  -15.8310 N.ar  133  HIS133     -0.2268
     78  CD2      100.3020   35.8790  -14.4700 C.ar  133  HIS133      0.1154
     79  CE1       98.4700   35.4820  -15.6080 C.ar  133  HIS133      0.1986
     80  NE2       99.3490   34.9400  -14.7830 N.ar  133  HIS133     -0.2212
     81  N        102.8930   40.4620  -15.6430 N.am  134  THR134     -0.1953
     82  CA       103.6060   41.7080  -15.8830 C.3   134  THR134      0.1897
     83  C        105.0900   41.4920  -15.5830 C.2   134  THR134      0.2313
     84  O        105.4740   40.4980  -14.9620 O.2   134  THR134     -0.2863
     85  CB       103.0550   42.8640  -15.0410 C.3   134  THR134      0.1794
     86  OG1      102.8590   42.4110  -13.6970 O.3   134  THR134     -0.2208
     87  CG2      101.7230   43.3460  -15.5710 C.3   134  THR134      0.0378
     88  N        113.3310   42.4890   -8.5140 N.3   147  ARG147     -0.1245
     89  CA       112.2680   41.8600   -9.2510 C.3   147  ARG147      0.1563
     90  C        112.7330   41.3800  -10.6410 C.2   147  ARG147      0.2260
     91  O        112.5670   40.1940  -10.9560 O.2   147  ARG147     -0.2867
     92  CB       111.0610   42.7960   -9.3490 C.3   147  ARG147      0.0307
     93  CG       109.9640   42.2480  -10.2340 C.3   147  ARG147      0.0489
     94  CD       108.7940   43.1630  -10.3590 C.3   147  ARG147      0.2205
     95  NE       107.9190   42.6380  -11.3910 N.pl3 147  ARG147     -0.0865
     96  CZ       106.6910   43.0660  -11.6370 C.cat 147  ARG147      0.5346
     97  NH1      105.9840   42.5110  -12.6120 N.pl3 147  ARG147      0.1354
     98  NH2      106.1700   44.0310  -10.9000 N.pl3 147  ARG147      0.1354
     99  N         91.0830   48.1940  -11.8400 N.3   224  ARG224     -0.1245
    100  CA        91.8170   48.7590  -10.7280 C.3   224  ARG224      0.1563
    101  C         92.0990   50.2200  -11.0050 C.2   224  ARG224      0.2260
    102  O         92.4870   50.5860  -12.1030 O.2   224  ARG224     -0.2867
    103  CB        93.1140   47.9790  -10.5030 C.3   224  ARG224      0.0307
    104  CG        92.8570   46.5650   -9.9900 C.3   224  ARG224      0.0489
    105  CD        94.1090   45.7460   -9.7650 C.3   224  ARG224      0.2205
    106  NE        94.8410   45.5230  -11.0030 N.pl3 224  ARG224     -0.0865
    107  CZ        96.1220   45.8270  -11.1760 C.cat 224  ARG224      0.5346
    108  NH1       96.8220   46.3450  -10.1790 N.pl3 224  ARG224      0.1354
    109  NH2       96.7050   45.6070  -12.3480 N.pl3 224  ARG224      0.1354
    110  N         98.9550   53.7910  -13.4400 N.3   228  PHE228     -0.1241
    111  CA        99.3850   53.0110  -14.6130 C.3   228  PHE228      0.1605
    112  C         98.2030   52.5050  -15.4650 C.2   228  PHE228      0.2264
    113  O         98.3610   52.1870  -16.6470 O.2   228  PHE228     -0.2867
    114  CB       100.3520   51.8680  -14.2170 C.3   228  PHE228      0.0534
    115  CG        99.7500   50.8340  -13.2760 C.ar  228  PHE228     -0.0203
    116  CD1       99.7730   51.0260  -11.8850 C.ar  228  PHE228     -0.0042
    117  CD2       99.1750   49.6560  -13.7760 C.ar  228  PHE228     -0.0042
    118  CE1       99.2160   50.0670  -11.0110 C.ar  228  PHE228     -0.0003
    119  CE2       98.6220   48.6920  -12.9080 C.ar  228  PHE228     -0.0003
    120  CZ        98.6400   48.9090  -11.5230 C.ar  228  PHE228     -0.0000
    121  N         99.4000   43.7300  -19.8310 N.3   301  SER301     -0.1217
    122  CA        99.1690   42.3310  -20.3010 C.3   301  SER301      0.1889
    123  C         98.5430   42.6000  -21.6750 C.2   301  SER301      0.2288
    124  O         99.2570   42.4890  -22.7040 O.2   301  SER301     -0.2866
    125  CB        98.2080   41.6220  -19.3100 C.3   301  SER301      0.2089
    126  OG        97.3730   42.6120  -18.5920 O.3   301  SER301     -0.2183
@<TRIPOS>BOND
     1   124   123    2
     2   123   122    1
     3   122   121    1
     4   122   125    1
     5   125   126    1
     6    74    73    2
     7   113   112    2
     8    73    72    1
     9    73    81   am
    10    71    72    1
    11    72    75    1
    12    82    81    1
    13    82    83    1
    14    82    85    1
    15    77    79   ar
    16    77    76   ar
    17    79    80   ar
    18    83    84    2
    19    87    85    1
    20   112   111    1
    21    75    76    1
    22    76    78   ar
    23    85    86    1
    24    33    32    2
    25    80    78   ar
    26    31    32    1
    27    31    30    1
    28   111   114    1
    29   111   110    1
    30    32    34   am
    31   114   115    1
    32   117   115   ar
    33   117   119   ar
    34    34    35    1
    35    30    28   am
    36    35    38    1
    37    35    36    1
    38   115   116   ar
    39   119   120   ar
    40    37    36    2
    41    38    39    1
    42    36    42   am
    43    97    96    1
    44   109   107    1
    45    39    40    1
    46    28    29    2
    47    28    27    1
    48   102   101    2
    49   116   118   ar
    50    59    60    1
    51    99   100    1
    52    42    43    1
    53    96    95    2
    54    96    98    1
    55    44    45    2
    56    44    43    1
    57   120   118   ar
    58    40    41    1
    59    95    94    1
    60    60    61    1
    61    60    63    1
    62    27    26    1
    63   107   106    2
    64   107   108    1
    65   101   100    1
    66   106   105    1
    67    91    90    2
    68    65    67   ar
    69    65    64   ar
    70    43    46    1
    71   100   103    1
    72    90    89    1
    73    61    62    2
    74   103   104    1
    75    67    69   ar
    76    94    93    1
    77    63    64    1
    78    93    92    1
    79   104   105    1
    80    64    66   ar
    81    46    47    1
    82    48    47    2
    83    92    89    1
    84    89    88    1
    85    69    70    1
    86    69    68   ar
    87    47    49   am
    88    66    68   ar
    89     9    10   ar
    90     9     7   ar
    91    58    57    1
    92    21    20    2
    93    10     8   ar
    94    17    15    1
    95    20    19    1
    96     7     6   ar
    97    57    56    1
    98    56    55    1
    99    19    22    1
   100    19    18    1
   101     8     6   ar
   102    15    16    1
   103    15    12    1
   104    14    13    2
   105     6     5    1
   106    22    23    1
   107    13    12    1
   108    24    23   ar
   109    55    54    1
   110    12    11    1
   111    11     3   am
   112    23    25   ar
   113     1     2    1
   114     5     2    1
   115     3     2    1
   116     3     4    2
   117    54    51    1
   118    53    52    2
   119    52    51    1
   120    51    50    1
