@<TRIPOS>MOLECULE
tmp/3c4vA00.pdb
 201 194 0 0 0
SMALL
GASTEIGER

@<TRIPOS>ATOM
      1  N         77.7460   43.5970    4.9200 N.3    15  GLN15      -0.1231
      2  CA        78.8510   43.7400    5.8640 C.3    15  GLN15       0.1683
      3  C         78.7220   45.0140    6.7210 C.2    15  GLN15       0.2434
      4  O         78.8020   46.1280    6.1770 O.2    15  GLN15      -0.2733
      5  CB        80.1700   43.7640    5.0770 C.3    15  GLN15       0.0380
      6  CG        81.4330   43.9940    5.8940 C.3    15  GLN15       0.0905
      7  CD        81.5840   42.9710    7.0020 C.2    15  GLN15       0.2608
      8  OE1       81.8380   41.7940    6.7420 O.2    15  GLN15      -0.2717
      9  NE2       81.4160   43.4140    8.2480 N.am   15  GLN15      -0.0878
     10  N         78.4930   44.8550    8.0580 N.am   16  PRO16      -0.2718
     11  CA        78.4740   45.9620    9.0570 C.3    16  PRO16       0.1535
     12  C         79.8200   46.7130    8.9530 C.2    16  PRO16       0.2599
     13  O         80.9030   46.1390    9.0890 O.2    16  PRO16      -0.2715
     14  CB        78.1540   45.2440   10.3460 C.3    16  PRO16       0.0310
     15  CG        77.3390   44.0340    9.8480 C.3    16  PRO16       0.0237
     16  CD        78.1630   43.5750    8.6970 C.3    16  PRO16       0.0939
     17  N         79.7350   48.0200    8.6740 N.am   17  GLY17      -0.1955
     18  CA        80.1560   49.1750    9.5640 C.3    17  GLY17       0.1869
     19  C         81.4080   49.4580    8.6000 C.2    17  GLY17       0.2309
     20  O         82.4760   49.9700    9.0040 O.2    17  GLY17      -0.2863
     21  N         75.4430   48.8520    9.9320 N.3    22  GLY22      -0.1210
     22  CA        76.0850   48.8950   11.2410 C.3    22  GLY22       0.1956
     23  C         75.3460   48.0500   12.2420 C.2    22  GLY22       0.2612
     24  O         74.8390   46.9850   11.9010 O.2    22  GLY22      -0.2717
     25  N         75.2690   48.5330   13.4870 N.am   23  GLY23      -0.1942
     26  CA        74.7230   47.7580   14.5880 C.3    23  GLY23       0.2014
     27  C         73.2780   47.3460   14.3810 C.2    23  GLY23       0.2638
     28  O         72.8450   46.3120   14.8950 O.2    23  GLY23      -0.2714
     29  N         72.5210   48.1450   13.6240 N.am   24  MET24      -0.1976
     30  CA        71.1280   47.8130   13.3680 C.3    24  MET24       0.1605
     31  C         71.0340   46.5450   12.5210 C.2    24  MET24       0.2287
     32  O         70.1510   45.7020   12.7500 O.2    24  MET24      -0.2864
     33  CB        70.4130   48.9530   12.6690 C.3    24  MET24       0.0413
     34  CG        68.9030   48.7310   12.5480 C.3    24  MET24       0.0598
     35  SD        68.0520   49.7020   11.2570 S.3    24  MET24      -0.1393
     36  CE        68.6910   51.3660   11.5090 C.3    24  MET24       0.0692
     37  N         73.3040   44.0910   12.3830 N.3    26  VAL26      -0.1245
     38  CA        73.6090   42.9250   13.2030 C.3    26  VAL26       0.1561
     39  C         72.5060   42.6630   14.2470 C.2    26  VAL26       0.2260
     40  O         72.2050   41.5130   14.5520 O.2    26  VAL26      -0.2867
     41  CB        75.1090   42.8230   13.6750 C.3    26  VAL26       0.0252
     42  CG1       75.9160   43.9920   13.1850 C.3    26  VAL26       0.0019
     43  CG2       75.2460   42.5900   15.1980 C.3    26  VAL26       0.0019
     44  N         82.6800   36.7190   20.3430 N.3   194  TYR194     -0.1241
     45  CA        83.5240   37.7370   20.9350 C.3   194  TYR194      0.1605
     46  C         83.8160   37.3040   22.3750 C.2   194  TYR194      0.2264
     47  O         82.9580   37.3890   23.2260 O.2   194  TYR194     -0.2867
     48  CB        82.8490   39.1180   20.8680 C.3   194  TYR194      0.0534
     49  CG        82.5630   39.5690   19.4530 C.ar  194  TYR194     -0.0201
     50  CD1       83.6080   39.8880   18.5780 C.ar  194  TYR194     -0.0009
     51  CD2       81.2550   39.6450   18.9710 C.ar  194  TYR194     -0.0009
     52  CE1       83.3640   40.2680   17.2720 C.ar  194  TYR194      0.0417
     53  CE2       80.9960   40.0230   17.6670 C.ar  194  TYR194      0.0417
     54  CZ        82.0560   40.3410   16.8240 C.ar  194  TYR194      0.1957
     55  OH        81.8170   40.7360   15.5260 O.3   194  TYR194     -0.2866
     56  N         86.4600   50.5600   16.1680 N.3   221  VAL221     -0.1231
     57  CA        85.7060   49.6800   15.2970 C.3   221  VAL221      0.1692
     58  C         84.4010   50.3580   14.9070 C.2   221  VAL221      0.2593
     59  O         83.6890   50.9140   15.7660 O.2   221  VAL221     -0.2718
     60  CB        85.4090   48.3520   15.9850 C.3   221  VAL221      0.0266
     61  CG1       84.5030   47.4850   15.1230 C.3   221  VAL221      0.0020
     62  CG2       86.7080   47.6140   16.3370 C.3   221  VAL221      0.0020
     63  N         84.0890   50.3240   13.6120 N.am  222  GLY222     -0.1942
     64  CA        82.7980   50.8100   13.1290 C.3   222  GLY222      0.2014
     65  C         82.8800   51.6960   11.9020 C.2   222  GLY222      0.2638
     66  O         83.9790   51.9970   11.4080 O.2   222  GLY222     -0.2714
     67  N         81.7060   52.0980   11.4120 N.am  223  ARG223     -0.1977
     68  CA        81.5800   53.0000   10.2770 C.3   223  ARG223      0.1597
     69  C         82.3700   54.2820   10.5330 C.2   223  ARG223      0.2287
     70  O         82.3210   54.8400   11.6400 O.2   223  ARG223     -0.2864
     71  CB        80.1080   53.3290   10.0050 C.3   223  ARG223      0.0334
     72  CG        79.2550   52.1330    9.6150 C.3   223  ARG223      0.0492
     73  CD        77.8220   52.5150    9.3340 C.3   223  ARG223      0.2205
     74  NE        77.1330   52.8790   10.5610 N.pl3 223  ARG223     -0.0865
     75  CZ        76.0630   53.6560   10.6310 C.cat 223  ARG223      0.5346
     76  NH1       75.5360   53.9310   11.8120 N.pl3 223  ARG223      0.1354
     77  NH2       75.5370   54.1660    9.5330 N.pl3 223  ARG223      0.1354
     78  N         79.7790   61.3320   12.8040 N.3   227  PHE227     -0.1227
     79  CA        78.9530   61.1070   13.9900 C.3   227  PHE227      0.1736
     80  C         79.4800   60.0030   14.9170 C.2   227  PHE227      0.2595
     81  O         79.0300   59.8930   16.0590 O.2   227  PHE227     -0.2718
     82  CB        77.4550   60.9200   13.6460 C.3   227  PHE227      0.0547
     83  CG        77.1330   59.6760   12.8210 C.ar  227  PHE227     -0.0202
     84  CD1       76.8450   59.7860   11.4470 C.ar  227  PHE227     -0.0042
     85  CD2       77.0640   58.4050   13.4170 C.ar  227  PHE227     -0.0042
     86  CE1       76.5220   58.6470   10.6770 C.ar  227  PHE227     -0.0003
     87  CE2       76.7430   57.2580   12.6560 C.ar  227  PHE227     -0.0003
     88  CZ        76.4810   57.3790   11.2870 C.ar  227  PHE227     -0.0000
     89  N         80.4430   59.2120   14.4340 N.am  228  LYS228     -0.1980
     90  CA        81.0600   58.1330   15.2160 C.3   228  LYS228      0.1596
     91  C         82.3670   58.5570   15.8880 C.2   228  LYS228      0.2287
     92  O         82.9990   57.7690   16.5930 O.2   228  LYS228     -0.2864
     93  CB        81.3250   56.9270   14.3210 C.3   228  LYS228      0.0298
     94  CG        80.0780   56.2240   13.8220 C.3   228  LYS228      0.0038
     95  CD        79.8420   54.9340   14.5870 C.3   228  LYS228      0.0206
     96  CE        78.7970   55.0950   15.6610 C.3   228  LYS228      0.1093
     97  NZ        78.8800   53.9240   16.5970 N.3   228  LYS228     -0.1314
     98  N         89.0510   50.2250   12.2270 N.3   254  CYS254     -0.1221
     99  CA        88.4580   49.1400   11.4680 C.3   254  CYS254      0.1812
    100  C         86.9270   49.1270   11.3360 C.2   254  CYS254      0.2640
    101  O         86.2270   49.1120   12.3500 O.2   254  CYS254     -0.2714
    102  CB        88.8730   47.8290   12.1450 C.3   254  CYS254      0.0970
    103  SG        88.1030   46.3480   11.4300 S.3   254  CYS254     -0.0800
    104  N         86.3800   49.3670   10.0930 N.am  255  GLY255     -0.1732
    105  CA        86.4210   50.7800    9.4940 C.2   255  GLY255      0.1340
    106  C         86.1700   50.8950    7.9970 C.2   255  GLY255      0.2521
    107  O         87.0710   50.6110    7.2100 O.2   255  GLY255     -0.2816
    108  N         86.7460   46.6340    6.6720 N.3   277  PRO277     -0.2102
    109  CA        85.7970   45.9460    7.5310 C.3   277  PRO277      0.1504
    110  C         85.7830   44.4550    7.2050 C.2   277  PRO277      0.2575
    111  O         86.0310   44.0580    6.0510 O.2   277  PRO277     -0.2718
    112  CB        84.4600   46.6060    7.1810 C.3   277  PRO277      0.0282
    113  CG        84.6300   47.1250    5.8160 C.3   277  PRO277      0.0208
    114  CD        86.0770   47.4690    5.6550 C.3   277  PRO277      0.0893
    115  N         85.4950   43.6500    8.2180 N.am  278  ARG278     -0.1980
    116  CA        85.5910   42.1980    8.1270 C.3   278  ARG278      0.1597
    117  C         84.4240   41.5160    8.8750 C.2   278  ARG278      0.2287
    118  O         83.8080   42.1340    9.7490 O.2   278  ARG278     -0.2864
    119  CB        86.9290   41.7650    8.7240 C.3   278  ARG278      0.0334
    120  CG        87.1300   42.2150   10.1710 C.3   278  ARG278      0.0492
    121  CD        88.5860   42.3850   10.4950 C.3   278  ARG278      0.2205
    122  NE        89.1820   43.2740    9.5250 N.pl3 278  ARG278     -0.0865
    123  CZ        90.3860   43.0930    9.0030 C.cat 278  ARG278      0.5346
    124  NH1       91.1330   42.0690    9.4030 N.pl3 278  ARG278      0.1354
    125  NH2       90.8440   43.9350    8.0930 N.pl3 278  ARG278      0.1354
    126  N         82.3350   39.1320   11.5570 N.3   280  PRO280     -0.2116
    127  CA        82.5540   38.9350   12.9890 C.3   280  PRO280      0.1372
    128  C         83.6250   37.8890   13.2900 C.2   280  PRO280      0.2244
    129  O         84.4590   38.1080   14.1700 O.2   280  PRO280     -0.2868
    130  CB        81.1990   38.4550   13.4860 C.3   280  PRO280      0.0268
    131  CG        80.2150   39.0610   12.5500 C.3   280  PRO280      0.0207
    132  CD        80.8990   39.1160   11.2150 C.3   280  PRO280      0.0892
    133  N         86.6580   39.9440   13.1030 N.3   283  LEU283     -0.1245
    134  CA        86.7300   41.1110   13.9690 C.3   283  LEU283      0.1561
    135  C         87.2590   40.7330   15.3530 C.2   283  LEU283      0.2260
    136  O         87.9970   41.5100   15.9630 O.2   283  LEU283     -0.2867
    137  CB        85.3610   41.7520   14.1310 C.3   283  LEU283      0.0270
    138  CG        85.1530   43.2520   13.9270 C.3   283  LEU283      0.0019
    139  CD1       84.0210   43.7200   14.7880 C.3   283  LEU283      0.0001
    140  CD2       86.3890   44.1210   14.1250 C.3   283  LEU283      0.0001
    141  N         85.3840   54.3450   21.7940 N.3   295  VAL295     -0.1245
    142  CA        84.1590   54.5780   21.0450 C.3   295  VAL295      0.1561
    143  C         83.5740   55.9730   21.2840 C.2   295  VAL295      0.2260
    144  O         82.6840   56.1540   22.1060 O.2   295  VAL295     -0.2867
    145  CB        83.1620   53.3320   21.0300 C.3   295  VAL295      0.0252
    146  CG1       83.5960   52.2060   21.9490 C.3   295  VAL295      0.0019
    147  CG2       81.7070   53.7240   21.1610 C.3   295  VAL295      0.0019
    148  N         74.3100   57.5580   19.2530 N.3   300  GLU300     -0.1231
    149  CA        74.3080   56.1360   19.6360 C.3   300  GLU300      0.1699
    150  C         73.0670   56.0240   20.5510 C.2   300  GLU300      0.2593
    151  O         72.2110   56.9280   20.4940 O.2   300  GLU300     -0.2718
    152  CB        75.5920   55.8600   20.4400 C.3   300  GLU300      0.0402
    153  CG        76.0470   54.4180   20.5420 C.3   300  GLU300      0.1161
    154  CD        76.7440   53.9120   19.2690 C.2   300  GLU300      0.3649
    155  OE1       77.9960   54.0630   19.1930 O.co2 300  GLU300     -0.2457
    156  OE2       76.0430   53.3470   18.3710 O.co2 300  GLU300     -0.2457
    157  N         72.8410   54.9350   21.3090 N.am  301  SER301     -0.1938
    158  CA        72.5310   53.5620   20.8340 C.3   301  SER301      0.2055
    159  C         71.6360   52.6800   21.7650 C.2   301  SER301      0.2643
    160  O         70.6670   53.2390   22.3680 O.2   301  SER301     -0.2714
    161  CB        73.6310   52.8210   19.9580 C.3   301  SER301      0.2130
    162  OG        73.3590   53.6300   18.5100 O.3   301  SER301     -0.2179
    163  N         71.9040   51.3850   22.0000 N.am  302  PHE302     -0.1959
    164  CA        73.0080   50.7480   22.7340 C.3   302  PHE302      0.1771
    165  C         74.5130   50.9140   22.5750 C.2   302  PHE302      0.2620
    166  O         75.1830   51.1940   23.5680 O.2   302  PHE302     -0.2715
    167  CB        72.6920   49.2480   22.8730 C.3   302  PHE302      0.0574
    168  CG        72.4180   48.5500   21.5630 C.ar  302  PHE302     -0.0200
    169  CD1       71.4070   48.9960   20.7050 C.ar  302  PHE302     -0.0042
    170  CD2       73.1590   47.4260   21.1920 C.ar  302  PHE302     -0.0042
    171  CE1       71.1580   48.3560   19.4870 C.ar  302  PHE302     -0.0003
    172  CE2       72.9110   46.7720   19.9700 C.ar  302  PHE302     -0.0003
    173  CZ        71.9040   47.2440   19.1210 C.ar  302  PHE302     -0.0000
    174  N         75.0760   50.6800   21.4030 N.am  303  GLY303     -0.1940
    175  CA        76.5270   50.6490   21.3110 C.3   303  GLY303      0.2014
    176  C         77.0220   49.2180   21.3620 C.2   303  GLY303      0.2639
    177  O         77.7080   48.7970   22.3150 O.2   303  GLY303     -0.2714
    178  N         76.6440   48.4880   20.3160 N.am  304  LEU304     -0.1963
    179  CA        77.0740   47.1310   20.0320 C.3   304  LEU304      0.1728
    180  C         78.5950   46.9230   20.0480 C.2   304  LEU304      0.2616
    181  O         79.0910   45.9050   20.5410 O.2   304  LEU304     -0.2715
    182  CB        76.5210   46.7470   18.6660 C.3   304  LEU304      0.0311
    183  CG        76.3100   45.2910   18.2700 C.3   304  LEU304      0.0022
    184  CD1       76.1030   44.3030   19.4530 C.3   304  LEU304      0.0001
    185  CD2       75.1170   45.2960   17.3580 C.3   304  LEU304      0.0001
    186  N         79.3380   47.8850   19.5150 N.am  305  VAL305     -0.1977
    187  CA        80.7860   47.7880   19.5400 C.3   305  VAL305      0.1596
    188  C         81.2820   47.8100   20.9780 C.2   305  VAL305      0.2287
    189  O         82.1370   46.9980   21.3560 O.2   305  VAL305     -0.2864
    190  CB        81.4560   48.8560   18.6470 C.3   305  VAL305      0.0276
    191  CG1       82.9460   48.9970   18.9270 C.3   305  VAL305      0.0022
    192  CG2       81.2540   48.4980   17.1980 C.3   305  VAL305      0.0022
    193  N         80.5160   44.2520   22.2810 N.3   308  GLU308     -0.1245
    194  CA        81.3810   43.2230   21.7160 C.3   308  GLU308      0.1567
    195  C         82.8150   43.2920   22.2350 C.2   308  GLU308      0.2260
    196  O         83.4380   42.2580   22.4900 O.2   308  GLU308     -0.2867
    197  CB        81.3820   43.3070   20.2030 C.3   308  GLU308      0.0388
    198  CG        80.0440   43.0630   19.5640 C.3   308  GLU308      0.1160
    199  CD        80.0490   43.4450   18.1000 C.2   308  GLU308      0.3649
    200  OE1       81.0920   43.9730   17.6220 O.co2 308  GLU308     -0.2457
    201  OE2       79.0150   43.2070   17.4380 O.co2 308  GLU308     -0.2457
@<TRIPOS>BOND
     1     1     2    1
     2     5     2    1
     3     5     6    1
     4   114   113    1
     5   114   108    1
     6   113   112    1
     7     2     3    1
     8     6     7    1
     9   111   110    2
    10     4     3    2
    11   108   109    1
    12     3    10   am
    13     8     7    2
    14     7     9   am
    15   112   109    1
    16   110   109    1
    17   110   115   am
    18   107   106    2
    19   106   105    1
    20    10    16    1
    21    10    11    1
    22   125   123    1
    23   116   115    1
    24   116   119    1
    25   116   117    1
    26    19    20    2
    27    19    18    1
    28    17    12   am
    29    17    18    1
    30    16    15    1
    31   119   120    1
    32   117   118    2
    33    12    11    1
    34    12    13    2
    35   123   124    1
    36   123   122    2
    37    11    14    1
    38    73    72    1
    39    73    74    1
    40   105   104    2
    41   122   121    1
    42    77    75    1
    43    72    71    1
    44    15    14    1
    45    21    22    1
    46    71    68    1
    47   104   100    1
    48   120   121    1
    49    68    69    1
    50    68    67    1
    51    69    70    2
    52    74    75    2
    53    75    76    1
    54    86    88   ar
    55    86    84   ar
    56   132   126    1
    57   132   131    1
    58    22    23    1
    59    35    36    1
    60    35    34    1
    61    88    87   ar
    62   100    99    1
    63   100   101    2
    64    66    65    2
    65    67    65   am
    66   103   102    1
    67    84    83   ar
    68    99   102    1
    69    99    98    1
    70   126   127    1
    71    24    23    2
    72    65    64    1
    73    23    25   am
    74    37    38    1
    75    31    32    2
    76    31    30    1
    77    34    33    1
    78   131   130    1
    79    87    85   ar
    80    33    30    1
    81    78    79    1
    82    83    85   ar
    83    83    82    1
    84   127   128    1
    85   127   130    1
    86   133   134    1
    87    64    63    1
    88    42    41    1
    89    38    41    1
    90    38    39    1
    91   128   129    2
    92    30    29    1
    93    25    26    1
    94    63    58   am
    95    29    27   am
    96    82    79    1
    97    41    43    1
    98    94    93    1
    99    94    95    1
   100   138   140    1
   101   138   137    1
   102   138   139    1
   103   134   137    1
   104   134   135    1
   105    79    80    1
   106    39    40    2
   107    93    90    1
   108    27    26    1
   109    27    28    2
   110    89    80   am
   111    89    90    1
   112    95    96    1
   113    58    57    1
   114    58    59    2
   115    80    81    2
   116    61    60    1
   117    90    91    1
   118    57    60    1
   119    57    56    1
   120   135   136    2
   121    55    54    1
   122    96    97    1
   123    91    92    2
   124    60    62    1
   125    54    52   ar
   126    54    53   ar
   127   192   190    1
   128    52    50   ar
   129   185   183    1
   130   201   199   ar
   131   200   199   ar
   132    53    51   ar
   133   199   198    1
   134   183   182    1
   135   183   184    1
   136   156   154   ar
   137   162   161    1
   138    50    49   ar
   139   190   191    1
   140   190   187    1
   141   182   179    1
   142    51    49   ar
   143   173   171   ar
   144   173   172   ar
   145   155   154   ar
   146   148   149    1
   147   154   153    1
   148    49    48    1
   149   171   169   ar
   150   186   187    1
   151   186   180   am
   152   187   188    1
   153   198   197    1
   154   149   152    1
   155   149   150    1
   156   161   158    1
   157   172   170   ar
   158   179   180    1
   159   179   178    1
   160   180   181    2
   161   197   194    1
   162   178   176   am
   163    44    45    1
   164   152   153    1
   165   151   150    2
   166   150   157   am
   167   169   168   ar
   168   158   157    1
   169   158   159    1
   170    48    45    1
   171    45    46    1
   172   188   189    2
   173   145   142    1
   174   145   147    1
   175   145   146    1
   176   142   143    1
   177   142   141    1
   178   170   168   ar
   179   143   144    2
   180   175   176    1
   181   175   174    1
   182   176   177    2
   183   174   165   am
   184   168   167    1
   185   194   195    1
   186   194   193    1
   187   159   163   am
   188   159   160    2
   189   163   164    1
   190   195   196    2
   191    46    47    2
   192   165   164    1
   193   165   166    2
   194   164   167    1
