@<TRIPOS>MOLECULE
tmp/3c4wB00.pdb
 178 164 0 0 0
SMALL
GASTEIGER

@<TRIPOS>ATOM
      1  N       -102.0790   49.8760  -58.4240 N.3   186  LEU186     -0.1231
      2  CA      -103.2150   49.1510  -57.8620 C.3   186  LEU186      0.1693
      3  C       -104.4950   49.9400  -58.0010 C.2   186  LEU186      0.2593
      4  O       -105.5770   49.3800  -58.1720 O.2   186  LEU186     -0.2718
      5  CB      -103.0120   48.9080  -56.3700 C.3   186  LEU186      0.0284
      6  CG      -102.0190   47.8590  -55.9180 C.3   186  LEU186      0.0019
      7  CD1     -101.9200   47.9480  -54.4060 C.3   186  LEU186      0.0001
      8  CD2     -102.4780   46.4880  -56.3510 C.3   186  LEU186      0.0001
      9  N       -104.3760   51.2510  -57.8680 N.am  187  GLY187     -0.1942
     10  CA      -105.5350   52.1310  -57.8820 C.3   187  GLY187      0.2014
     11  C       -105.1200   53.5880  -57.9070 C.2   187  GLY187      0.2639
     12  O       -103.9400   53.9110  -57.9120 O.2   187  GLY187     -0.2714
     13  N       -106.1010   54.4810  -57.9240 N.am  188  ARG188     -0.1963
     14  CA      -105.8180   55.9180  -57.9720 C.3   188  ARG188      0.1729
     15  C       -106.6720   56.6460  -56.9650 C.2   188  ARG188      0.2617
     16  O       -107.8870   56.4300  -56.8820 O.2   188  ARG188     -0.2715
     17  CB      -106.0630   56.5180  -59.3520 C.3   188  ARG188      0.0348
     18  CG      -105.4650   57.9140  -59.4890 C.3   188  ARG188      0.0492
     19  CD      -105.7200   58.5420  -60.8600 C.3   188  ARG188      0.2205
     20  NE      -104.5340   59.1970  -61.4310 N.pl3 188  ARG188     -0.0865
     21  CZ      -104.5610   60.0830  -62.4340 C.cat 188  ARG188      0.5346
     22  NH1     -105.7140   60.4610  -62.9860 N.pl3 188  ARG188      0.1354
     23  NH2     -103.4250   60.6150  -62.8890 N.pl3 188  ARG188      0.1354
     24  N       -106.0280   57.5300  -56.2130 N.am  189  GLY189     -0.1940
     25  CA      -106.7210   58.3300  -55.2090 C.3   189  GLY189      0.2014
     26  C       -106.8110   59.8070  -55.5660 C.2   189  GLY189      0.2639
     27  O       -106.5470   60.2150  -56.7150 O.2   189  GLY189     -0.2714
     28  N       -107.1700   60.6100  -54.5590 N.am  190  GLY190     -0.1939
     29  CA      -107.2670   62.0640  -54.6950 C.3   190  GLY190      0.2014
     30  C       -105.9240   62.7800  -54.7910 C.2   190  GLY190      0.2639
     31  O       -105.8610   63.8440  -55.4080 O.2   190  GLY190     -0.2714
     32  N       -104.8500   62.2140  -54.2130 N.am  191  PHE191     -0.1959
     33  CA      -103.5270   62.8930  -54.2050 C.3   191  PHE191      0.1771
     34  C       -102.3440   62.0960  -54.8170 C.2   191  PHE191      0.2620
     35  O       -101.1820   62.5160  -54.7670 O.2   191  PHE191     -0.2715
     36  CB      -103.2090   63.3650  -52.7800 C.3   191  PHE191      0.0574
     37  CG      -104.2840   64.2750  -52.1710 C.ar  191  PHE191     -0.0200
     38  CD1     -105.2800   63.7470  -51.3230 C.ar  191  PHE191     -0.0042
     39  CD2     -104.2840   65.6480  -52.4310 C.ar  191  PHE191     -0.0042
     40  CE1     -106.2510   64.5690  -50.7540 C.ar  191  PHE191     -0.0003
     41  CE2     -105.2560   66.4900  -51.8680 C.ar  191  PHE191     -0.0003
     42  CZ      -106.2410   65.9540  -51.0260 C.ar  191  PHE191     -0.0000
     43  N       -102.6470   60.9620  -55.4260 N.am  192  GLY192     -0.1954
     44  CA      -101.6300   60.1720  -56.0890 C.3   192  GLY192      0.1869
     45  C       -102.0050   58.7020  -56.0650 C.2   192  GLY192      0.2309
     46  O       -102.9800   58.3000  -55.4050 O.2   192  GLY192     -0.2863
     47  N       -101.8570   54.4840  -55.8680 N.3   194  VAL194     -0.1245
     48  CA      -101.4900   53.4470  -54.9420 C.3   194  VAL194      0.1561
     49  C       -100.8220   52.3520  -55.7660 C.2   194  VAL194      0.2260
     50  O       -101.3980   51.8650  -56.7330 O.2   194  VAL194     -0.2867
     51  CB      -102.7240   52.9300  -54.1980 C.3   194  VAL194      0.0252
     52  CG1     -102.3540   51.8090  -53.1990 C.3   194  VAL194      0.0019
     53  CG2     -103.4140   54.0860  -53.4860 C.3   194  VAL194      0.0019
     54  N        -99.0540   47.4390  -50.4920 N.3   207  ALA207     -0.1245
     55  CA       -99.6250   48.5940  -51.2060 C.3   207  ALA207      0.1562
     56  C        -98.9020   49.8510  -50.7350 C.2   207  ALA207      0.2260
     57  O        -98.7780   50.0760  -49.5240 O.2   207  ALA207     -0.2867
     58  CB      -101.1000   48.7140  -50.9150 C.3   207  ALA207      0.0290
     59  N        -99.3220   53.7980  -50.8290 N.3   209  LYS209     -0.1245
     60  CA      -100.1750   54.9400  -51.1500 C.3   209  LYS209      0.1561
     61  C        -99.3250   56.2010  -51.1760 C.2   209  LYS209      0.2260
     62  O        -98.7260   56.5530  -50.1590 O.2   209  LYS209     -0.2867
     63  CB      -101.2870   55.0800  -50.1150 C.3   209  LYS209      0.0271
     64  CG      -102.2880   56.2020  -50.3740 C.3   209  LYS209      0.0035
     65  CD      -103.4250   56.1560  -49.3410 C.3   209  LYS209      0.0206
     66  CE      -104.5960   57.1050  -49.6570 C.3   209  LYS209      0.1093
     67  NZ      -105.8040   56.8120  -48.7850 N.3   209  LYS209     -0.1314
     68  N        -98.9360   60.3040  -51.7290 N.3   211  LEU211     -0.1245
     69  CA       -99.6480   61.5730  -51.6630 C.3   211  LEU211      0.1561
     70  C        -98.6700   62.6500  -52.0980 C.2   211  LEU211      0.2260
     71  O        -97.6440   62.8760  -51.4490 O.2   211  LEU211     -0.2867
     72  CB      -100.1770   61.8760  -50.2470 C.3   211  LEU211      0.0270
     73  CG      -100.9120   60.7940  -49.4330 C.3   211  LEU211      0.0019
     74  CD1     -101.3160   61.3530  -48.0720 C.3   211  LEU211      0.0001
     75  CD2     -102.1260   60.2720  -50.1570 C.3   211  LEU211      0.0001
     76  N       -105.1160   59.7290  -41.1490 N.3   228  GLU228     -0.1245
     77  CA      -105.0830   58.3720  -41.6870 C.3   228  GLU228      0.1567
     78  C       -103.8260   57.6540  -41.1940 C.2   228  GLU228      0.2260
     79  O       -103.8820   56.5000  -40.7590 O.2   228  GLU228     -0.2867
     80  CB      -105.1640   58.3410  -43.2300 C.3   228  GLU228      0.0388
     81  CG      -104.8730   56.9670  -43.8230 C.3   228  GLU228      0.1160
     82  CD      -105.4070   56.7630  -45.2400 C.2   228  GLU228      0.3649
     83  OE1     -105.0750   57.5670  -46.1460 O.co2 228  GLU228     -0.2457
     84  OE2     -106.1410   55.7640  -45.4570 O.co2 228  GLU228     -0.2457
     85  N       -106.7490   47.7210  -42.7600 N.3   241  VAL241     -0.1245
     86  CA      -105.4440   47.6990  -43.4260 C.3   241  VAL241      0.1561
     87  C       -104.3830   48.2280  -42.4500 C.2   241  VAL241      0.2260
     88  O       -104.6120   49.1810  -41.7560 O.2   241  VAL241     -0.2867
     89  CB      -105.4330   48.5090  -44.7400 C.3   241  VAL241      0.0252
     90  CG1     -106.3640   47.8770  -45.7540 C.3   241  VAL241      0.0019
     91  CG2     -105.8250   49.9380  -44.4960 C.3   241  VAL241      0.0019
     92  N        -98.5410   49.6930  -46.7060 N.3   257  MET257     -0.1230
     93  CA       -99.5880   49.0370  -45.9470 C.3   257  MET257      0.1702
     94  C       -100.0100   47.7020  -46.5480 C.2   257  MET257      0.2593
     95  O        -99.5610   47.3290  -47.6200 O.2   257  MET257     -0.2718
     96  CB      -100.8050   49.9740  -45.8530 C.3   257  MET257      0.0401
     97  CG      -101.4780   50.2980  -47.1770 C.3   257  MET257      0.0596
     98  SD      -103.0540   51.1930  -46.9810 S.3   257  MET257     -0.1393
     99  CE      -102.5710   52.8510  -46.5060 C.3   257  MET257      0.0692
    100  N       -100.8690   46.9790  -45.8390 N.am  258  THR258     -0.1953
    101  CA      -101.3730   45.7000  -46.3130 C.3   258  THR258      0.1897
    102  C       -101.8460   45.8000  -47.7610 C.2   258  THR258      0.2313
    103  O       -102.6560   46.6700  -48.0810 O.2   258  THR258     -0.2863
    104  CB      -102.5620   45.2390  -45.4690 C.3   258  THR258      0.1794
    105  OG1     -102.2870   45.4410  -44.0730 O.3   258  THR258     -0.2208
    106  CG2     -102.8580   43.7760  -45.7420 C.3   258  THR258      0.0378
    107  N       -104.1460   44.7620  -50.7390 N.3   260  MET260     -0.1245
    108  CA      -105.4420   44.1020  -50.9260 C.3   260  MET260      0.1570
    109  C       -105.7520   44.0030  -52.4160 C.2   260  MET260      0.2261
    110  O       -106.2300   44.9600  -52.9840 O.2   260  MET260     -0.2867
    111  CB      -106.5460   44.8520  -50.1810 C.3   260  MET260      0.0387
    112  CG      -106.2660   45.1210  -48.7120 C.3   260  MET260      0.0595
    113  SD      -106.3920   43.6610  -47.6560 S.3   260  MET260     -0.1393
    114  CE      -108.1380   43.5410  -47.2480 C.3   260  MET260      0.0692
    115  N       -112.5670   46.0230  -54.5060 N.3   264  ASP264     -0.1239
    116  CA      -113.4050   46.4940  -53.4160 C.3   264  ASP264      0.1674
    117  C       -114.8310   46.0090  -53.5830 C.2   264  ASP264      0.2266
    118  O       -115.2640   45.6370  -54.6920 O.2   264  ASP264     -0.2867
    119  CB      -113.3580   48.0000  -53.3020 C.3   264  ASP264      0.1410
    120  CG      -113.6230   48.6880  -54.6150 C.2   264  ASP264      0.3668
    121  OD1     -114.7660   48.6160  -55.1260 O.co2 264  ASP264     -0.2456
    122  OD2     -112.6670   49.3010  -55.1290 O.co2 264  ASP264     -0.2456
    123  N       -116.4300   57.1470  -42.9790 N.3   307  ASP307     -0.1239
    124  CA      -116.3290   56.9290  -44.4190 C.3   307  ASP307      0.1674
    125  C       -116.4620   55.4500  -44.8080 C.2   307  ASP307      0.2266
    126  O       -115.8330   54.9820  -45.7750 O.2   307  ASP307     -0.2867
    127  CB      -114.9990   57.4970  -44.9430 C.3   307  ASP307      0.1410
    128  CG      -115.0740   57.9380  -46.4110 C.2   307  ASP307      0.3668
    129  OD1     -116.1920   58.1340  -46.9570 O.co2 307  ASP307     -0.2456
    130  OD2     -113.9860   58.0870  -47.0140 O.co2 307  ASP307     -0.2456
    131  N       -118.1990   52.7540  -46.7620 N.3   309  LYS309     -0.1245
    132  CA      -118.9880   52.6300  -47.9800 C.3   309  LYS309      0.1561
    133  C       -118.3410   51.5150  -48.7790 C.2   309  LYS309      0.2260
    134  O       -117.1720   51.2550  -48.5860 O.2   309  LYS309     -0.2867
    135  CB      -118.9830   53.9330  -48.7740 C.3   309  LYS309      0.0271
    136  CG      -117.6050   54.5430  -49.0140 C.3   309  LYS309      0.0035
    137  CD      -117.7220   55.8100  -49.8860 C.3   309  LYS309      0.0206
    138  CE      -116.3750   56.5340  -50.0670 C.3   309  LYS309      0.1093
    139  NZ      -116.5440   57.8290  -50.8060 N.3   309  LYS309     -0.1314
    140  N       -116.9790   51.0380  -51.6760 N.3   311  GLU311     -0.1231
    141  CA      -115.7010   51.2600  -52.3880 C.3   311  GLU311      0.1699
    142  C       -114.5060   51.3790  -51.4520 C.2   311  GLU311      0.2592
    143  O       -113.3700   51.4080  -51.9100 O.2   311  GLU311     -0.2718
    144  CB      -115.7390   52.4840  -53.3280 C.3   311  GLU311      0.0402
    145  CG      -115.6550   53.8410  -52.6410 C.3   311  GLU311      0.1161
    146  CD      -116.1120   55.0130  -53.5360 C.2   311  GLU311      0.3649
    147  OE1     -117.2390   55.5200  -53.3180 O.co2 311  GLU311     -0.2457
    148  OE2     -115.3510   55.4300  -54.4520 O.co2 311  GLU311     -0.2457
    149  N       -114.7460   51.4710  -50.1460 N.am  312  ASN312     -0.1974
    150  CA      -113.6640   51.5240  -49.1500 C.3   312  ASN312      0.1688
    151  C       -113.4640   50.2330  -48.3990 C.2   312  ASN312      0.2292
    152  O       -112.5810   50.1580  -47.5380 O.2   312  ASN312     -0.2864
    153  CB      -113.9080   52.6230  -48.1380 C.3   312  ASN312      0.1181
    154  CG      -113.5490   53.9810  -48.6780 C.2   312  ASN312      0.2629
    155  OD1     -113.0340   54.1030  -49.8020 O.2   312  ASN312     -0.2716
    156  ND2     -113.8160   55.0180  -47.8880 N.am  312  ASN312     -0.0877
    157  N       -112.0640   46.6890  -48.9700 N.3   314  LEU314     -0.1245
    158  CA      -111.1860   45.9890  -49.9130 C.3   314  LEU314      0.1561
    159  C       -111.0930   44.5030  -49.5960 C.2   314  LEU314      0.2260
    160  O       -111.1190   44.1210  -48.4350 O.2   314  LEU314     -0.2867
    161  CB      -109.7830   46.5900  -49.8350 C.3   314  LEU314      0.0270
    162  CG      -109.7370   48.1160  -49.9830 C.3   314  LEU314      0.0019
    163  CD1     -108.3060   48.6390  -49.8240 C.3   314  LEU314      0.0001
    164  CD2     -110.3530   48.5350  -51.3330 C.3   314  LEU314      0.0001
    165  N       -110.7380   50.5970  -45.1140 N.3   324  SER324     -0.1202
    166  CA      -109.6150   51.4240  -45.5640 C.3   324  SER324      0.2020
    167  C       -110.0830   52.8530  -45.7540 C.2   324  SER324      0.2618
    168  O       -111.2620   53.1500  -45.5760 O.2   324  SER324     -0.2717
    169  CB      -109.0460   50.8820  -46.8780 C.3   324  SER324      0.2103
    170  OG      -109.8850   51.1720  -48.0030 O.3   324  SER324     -0.2182
    171  N       -109.1620   53.7330  -46.1330 N.am  325  ASP325     -0.1973
    172  CA      -109.4770   55.1460  -46.3680 C.3   325  ASP325      0.1709
    173  C       -109.9160   55.7910  -45.0540 C.2   325  ASP325      0.2293
    174  O       -111.1020   55.9610  -44.8070 O.2   325  ASP325     -0.2864
    175  CB      -110.5650   55.2850  -47.4520 C.3   325  ASP325      0.1436
    176  CG      -110.4750   56.5940  -48.2250 C.2   325  ASP325      0.3671
    177  OD1     -109.8660   57.5730  -47.7290 O.co2 325  ASP325     -0.2456
    178  OD2     -111.0030   56.6290  -49.3570 O.co2 325  ASP325     -0.2456
@<TRIPOS>BOND
     1    22    21    1
     2    23    21    1
     3    21    20    2
     4    20    19    1
     5    19    18    1
     6    18    17    1
     7    17    14    1
     8     1     2    1
     9     4     3    2
    10     3     9   am
    11     3     2    1
    12    14    13    1
    13    14    15    1
    14    13    11   am
    15    12    11    2
    16    11    10    1
    17    10     9    1
    18     2     5    1
    19    15    16    2
    20    15    24   am
    21    50    49    2
    22    27    26    2
    23     5     6    1
    24     8     6    1
    25    24    25    1
    26    44    45    1
    27    44    43    1
    28    45    46    2
    29     6     7    1
    30    47    48    1
    31    49    48    1
    32    26    25    1
    33    26    28   am
    34    43    34   am
    35    31    30    2
    36   122   120   ar
    37   121   120   ar
    38    48    51    1
    39    34    35    2
    40    34    33    1
    41    30    29    1
    42    30    32   am
    43    29    28    1
    44   118   117    2
    45   120   119    1
    46   115   116    1
    47   148   146   ar
    48    32    33    1
    49    33    36    1
    50    51    53    1
    51    51    52    1
    52   117   116    1
    53   146   147   ar
    54   146   145    1
    55   116   119    1
    56   144   145    1
    57   144   141    1
    58   110   109    2
    59    36    37    1
    60    39    37   ar
    61    39    41   ar
    62   109   108    1
    63   141   140    1
    64   141   142    1
    65    37    38   ar
    66    70    69    1
    67    70    71    2
    68   143   142    2
    69    41    42   ar
    70    68    69    1
    71    69    72    1
    72   142   149   am
    73   164   162    1
    74    38    40   ar
    75    55    58    1
    76    55    56    1
    77    55    54    1
    78    61    60    1
    79    61    62    2
    80    60    59    1
    81    60    63    1
    82    42    40   ar
    83   108   107    1
    84   108   111    1
    85   139   138    1
    86    56    57    2
    87    64    63    1
    88    64    65    1
    89    72    73    1
    90   111   112    1
    91    75    73    1
    92   149   150    1
    93   138   137    1
    94   162   161    1
    95   162   163    1
    96   158   161    1
    97   158   159    1
    98   158   157    1
    99   137   136    1
   100   155   154    2
   101    66    65    1
   102    66    67    1
   103   159   160    2
   104    73    74    1
   105   178   176   ar
   106   150   151    1
   107   150   153    1
   108   136   135    1
   109   133   134    2
   110   133   132    1
   111   135   132    1
   112   112   113    1
   113   154   153    1
   114   154   156   am
   115   151   152    2
   116   176   177   ar
   117   176   175    1
   118   103   102    2
   119   170   169    1
   120   132   131    1
   121   102   101    1
   122   113   114    1
   123    95    94    2
   124   175   172    1
   125    97    98    1
   126    97    96    1
   127   130   128   ar
   128    98    99    1
   129   129   128   ar
   130   169   166    1
   131    92    93    1
   132    94    93    1
   133    94   100   am
   134   128   127    1
   135   172   171    1
   136   172   173    1
   137   101   100    1
   138   101   104    1
   139    83    82   ar
   140   171   167   am
   141    93    96    1
   142   126   125    2
   143    90    89    1
   144   167   168    2
   145   167   166    1
   146   106   104    1
   147   166   165    1
   148   104   105    1
   149    84    82   ar
   150    82    81    1
   151   173   174    2
   152   127   124    1
   153   125   124    1
   154    89    91    1
   155    89    86    1
   156   124   123    1
   157    81    80    1
   158    86    85    1
   159    86    87    1
   160    80    77    1
   161    87    88    2
   162    77    78    1
   163    77    76    1
   164    78    79    2
