@<TRIPOS>MOLECULE
tmp/3c4zA00.pdb
 157 145 0 0 0
SMALL
GASTEIGER

@<TRIPOS>ATOM
      1  N        -32.9480  -13.7960   24.4710 N.3   160  LEU160     -0.1231
      2  CA       -31.8990  -13.3550   23.5550 C.3   160  LEU160      0.1693
      3  C        -32.2000  -13.7920   22.1360 C.2   160  LEU160      0.2593
      4  O        -31.8400  -13.1150   21.1680 O.2   160  LEU160     -0.2718
      5  CB       -30.5490  -13.9450   23.9610 C.3   160  LEU160      0.0284
      6  CG       -29.8920  -13.3090   25.1800 C.3   160  LEU160      0.0019
      7  CD1      -28.6640  -14.1190   25.5790 C.3   160  LEU160      0.0001
      8  CD2      -29.5280  -11.8850   24.8970 C.3   160  LEU160      0.0001
      9  N        -32.8280  -14.9430   22.0040 N.am  161  GLY161     -0.1942
     10  CA       -33.1100  -15.4840   20.6810 C.3   161  GLY161      0.2014
     11  C        -33.9150  -16.7390   20.7600 C.2   161  GLY161      0.2639
     12  O        -34.2130  -17.2230   21.8550 O.2   161  GLY161     -0.2714
     13  N        -34.2900  -17.2500   19.5870 N.am  162  ARG162     -0.1963
     14  CA       -35.0980  -18.4430   19.4730 C.3   162  ARG162      0.1729
     15  C        -34.3430  -19.4580   18.6380 C.2   162  ARG162      0.2617
     16  O        -33.8620  -19.1380   17.5520 O.2   162  ARG162     -0.2715
     17  CB       -36.4310  -18.1320   18.7870 C.3   162  ARG162      0.0348
     18  CG       -37.4030  -19.2830   18.8530 C.3   162  ARG162      0.0492
     19  CD       -38.5820  -19.1720   17.8740 C.3   162  ARG162      0.2205
     20  NE       -39.0220  -20.5330   17.5440 N.pl3 162  ARG162     -0.0865
     21  CZ       -38.5320  -21.2960   16.5600 C.cat 162  ARG162      0.5346
     22  NH1      -37.5960  -20.8470   15.7230 N.pl3 162  ARG162      0.1354
     23  NH2      -38.9970  -22.5300   16.4060 N.pl3 162  ARG162      0.1354
     24  N        -34.2120  -20.6710   19.1550 N.am  163  GLY163     -0.1940
     25  CA       -33.6740  -21.7630   18.3810 C.3   163  GLY163      0.2014
     26  C        -34.7540  -22.7790   18.0550 C.2   163  GLY163      0.2639
     27  O        -35.9360  -22.5730   18.3660 O.2   163  GLY163     -0.2714
     28  N        -34.3310  -23.8920   17.4690 N.am  164  GLY164     -0.1939
     29  CA       -35.2320  -24.9480   16.9990 C.3   164  GLY164      0.2014
     30  C        -35.9370  -25.7090   18.1090 C.2   164  GLY164      0.2638
     31  O        -37.0280  -26.2420   17.8990 O.2   164  GLY164     -0.2714
     32  N        -35.3290  -25.7650   19.2910 N.am  165  PHE165     -0.1973
     33  CA       -35.8940  -26.5100   20.4060 C.3   165  PHE165      0.1639
     34  C        -36.2080  -25.6750   21.6300 C.2   165  PHE165      0.2290
     35  O        -36.6310  -26.2020   22.6370 O.2   165  PHE165     -0.2864
     36  CB       -34.9520  -27.6600   20.7700 C.3   165  PHE165      0.0560
     37  CG       -34.7750  -28.6450   19.6580 C.ar  165  PHE165     -0.0200
     38  CD1      -33.6560  -28.6070   18.8410 C.ar  165  PHE165     -0.0042
     39  CD2      -35.7450  -29.6010   19.4110 C.ar  165  PHE165     -0.0042
     40  CE1      -33.5070  -29.5120   17.8070 C.ar  165  PHE165     -0.0003
     41  CE2      -35.6020  -30.5070   18.3850 C.ar  165  PHE165     -0.0003
     42  CZ       -34.4890  -30.4630   17.5790 C.ar  165  PHE165     -0.0000
     43  N        -33.2580  -18.9680   23.9360 N.3   168  VAL168     -0.1245
     44  CA       -31.9980  -18.6730   24.5760 C.3   168  VAL168      0.1561
     45  C        -32.2190  -17.4200   25.4100 C.2   168  VAL168      0.2260
     46  O        -32.6900  -16.3980   24.8910 O.2   168  VAL168     -0.2867
     47  CB       -30.8970  -18.4490   23.5460 C.3   168  VAL168      0.0252
     48  CG1      -29.5770  -18.1610   24.2600 C.3   168  VAL168      0.0019
     49  CG2      -30.7740  -19.6850   22.6290 C.3   168  VAL168      0.0019
     50  N        -25.4520  -16.6550   28.6790 N.3   181  ALA181     -0.1245
     51  CA       -26.6000  -17.0660   27.8490 C.3   181  ALA181      0.1562
     52  C        -26.9690  -18.4810   28.2420 C.2   181  ALA181      0.2260
     53  O        -26.0860  -19.3260   28.4030 O.2   181  ALA181     -0.2867
     54  CB       -26.2460  -17.0160   26.3720 C.3   181  ALA181      0.0290
     55  N        -29.1220  -21.5070   26.7500 N.3   183  LYS183     -0.1245
     56  CA       -29.8280  -22.1410   25.6480 C.3   183  LYS183      0.1561
     57  C        -30.6380  -23.3190   26.1650 C.2   183  LYS183      0.2260
     58  O        -30.0860  -24.2870   26.7150 O.2   183  LYS183     -0.2867
     59  CB       -28.8310  -22.6070   24.5660 C.3   183  LYS183      0.0271
     60  CG       -29.4520  -23.3270   23.3800 C.3   183  LYS183      0.0035
     61  CD       -28.3790  -23.5760   22.2880 C.3   183  LYS183      0.0206
     62  CE       -28.8770  -24.4190   21.1360 C.3   183  LYS183      0.1093
     63  NZ       -27.8410  -24.5000   20.0490 N.3   183  LYS183     -0.1314
     64  N        -33.2860  -26.4520   25.5540 N.3   185  LEU185     -0.1245
     65  CA       -33.7550  -27.4410   24.5960 C.3   185  LEU185      0.1561
     66  C        -34.8970  -28.2140   25.2280 C.2   185  LEU185      0.2260
     67  O        -34.6830  -28.9990   26.1520 O.2   185  LEU185     -0.2867
     68  CB       -32.6410  -28.4210   24.2280 C.3   185  LEU185      0.0270
     69  CG       -31.2490  -27.9190   23.8520 C.3   185  LEU185      0.0019
     70  CD1      -30.3800  -29.1130   23.5100 C.3   185  LEU185      0.0001
     71  CD2      -31.3200  -26.9760   22.6850 C.3   185  LEU185      0.0001
     72  N        -23.0710  -30.8880   20.2470 N.3   202  GLU202     -0.1245
     73  CA       -22.8470  -29.4850   20.5250 C.3   202  GLU202      0.1567
     74  C        -22.3150  -29.3200   21.9470 C.2   202  GLU202      0.2260
     75  O        -21.3510  -28.5900   22.1880 O.2   202  GLU202     -0.2867
     76  CB       -24.1320  -28.6660   20.3790 C.3   202  GLU202      0.0388
     77  CG       -23.9670  -27.2370   20.9130 C.3   202  GLU202      0.1160
     78  CD       -25.1010  -26.3250   20.4780 C.2   202  GLU202      0.3649
     79  OE1      -26.1640  -26.3440   21.1290 O.co2 202  GLU202     -0.2457
     80  OE2      -24.9240  -25.5890   19.4920 O.co2 202  GLU202     -0.2457
     81  N        -17.9370  -19.7940   21.3090 N.3   215  VAL215     -0.1245
     82  CA       -18.7050  -19.6830   22.5640 C.3   215  VAL215      0.1561
     83  C        -18.2720  -20.7880   23.5240 C.2   215  VAL215      0.2260
     84  O        -18.0760  -21.9240   23.1130 O.2   215  VAL215     -0.2867
     85  CB       -20.2410  -19.7180   22.3320 C.3   215  VAL215      0.0252
     86  CG1      -20.6700  -18.4390   21.5480 C.3   215  VAL215      0.0019
     87  CG2      -20.6380  -20.9500   21.6210 C.3   215  VAL215      0.0019
     88  N        -23.6250  -20.6520   28.5790 N.3   231  MET231     -0.1230
     89  CA       -22.4570  -20.3320   27.7720 C.3   231  MET231      0.1702
     90  C        -22.2460  -18.8270   27.6970 C.2   231  MET231      0.2593
     91  O        -23.0890  -18.0470   28.1340 O.2   231  MET231     -0.2718
     92  CB       -22.6240  -20.9150   26.3520 C.3   231  MET231      0.0401
     93  CG       -23.6910  -20.2200   25.5550 C.3   231  MET231      0.0596
     94  SD       -23.8120  -20.8550   23.8750 S.3   231  MET231     -0.1393
     95  CE       -24.6530  -22.4080   24.1760 C.3   231  MET231      0.0692
     96  N        -21.0970  -18.4360   27.1470 N.am  232  THR232     -0.1953
     97  CA       -20.7490  -17.0430   26.9050 C.3   232  THR232      0.1897
     98  C        -21.9320  -16.2550   26.3820 C.2   232  THR232      0.2313
     99  O        -22.5200  -16.6520   25.3700 O.2   232  THR232     -0.2863
    100  CB       -19.6680  -16.9500   25.8390 C.3   232  THR232      0.1794
    101  OG1      -18.6090  -17.8570   26.1500 O.3   232  THR232     -0.2208
    102  CG2      -19.1240  -15.5640   25.7560 C.3   232  THR232      0.0378
    103  N        -23.4650  -13.3830   24.2700 N.3   234  MET234     -0.1245
    104  CA       -23.0590  -12.6450   23.0870 C.3   234  MET234      0.1570
    105  C        -24.1530  -11.6370   22.8080 C.2   234  MET234      0.2261
    106  O        -25.1000  -11.9030   22.0770 O.2   234  MET234     -0.2867
    107  CB       -22.8400  -13.6020   21.9190 C.3   234  MET234      0.0387
    108  CG       -21.7680  -14.6660   22.1950 C.3   234  MET234      0.0595
    109  SD       -20.0790  -14.0180   22.4190 S.3   234  MET234     -0.1393
    110  CE       -19.6940  -13.4080   20.7750 C.3   234  MET234      0.0692
    111  N        -26.0570  -11.1270   15.6510 N.3   238  ASP238     -0.1239
    112  CA       -25.3160  -12.0350   14.7690 C.3   238  ASP238      0.1674
    113  C        -24.9280  -11.3030   13.4950 C.2   238  ASP238      0.2266
    114  O        -25.4890  -10.2320   13.1760 O.2   238  ASP238     -0.2867
    115  CB       -26.0930  -13.3230   14.5030 C.3   238  ASP238      0.1410
    116  CG       -27.3520  -13.1090   13.6890 C.2   238  ASP238      0.3668
    117  OD1      -28.4480  -13.3280   14.2350 O.co2 238  ASP238     -0.2456
    118  OD2      -27.2500  -12.7630   12.4910 O.co2 238  ASP238     -0.2456
    119  N        -25.2710  -16.1350   10.2100 N.3   285  GLU285     -0.1231
    120  CA       -26.1640  -16.2300   11.3630 C.3   285  GLU285      0.1699
    121  C        -25.5820  -16.9980   12.5650 C.2   285  GLU285      0.2592
    122  O        -26.0630  -16.8090   13.6810 O.2   285  GLU285     -0.2718
    123  CB       -27.5010  -16.8590   10.9800 C.3   285  GLU285      0.0402
    124  CG       -28.5990  -16.4630   11.9420 C.3   285  GLU285      0.1161
    125  CD       -30.0140  -16.7260   11.4130 C.2   285  GLU285      0.3649
    126  OE1      -30.1860  -17.5970   10.5290 O.co2 285  GLU285     -0.2457
    127  OE2      -30.9570  -16.0600   11.9110 O.co2 285  GLU285     -0.2457
    128  N        -24.5790  -17.8510   12.3460 N.am  286  ASN286     -0.1974
    129  CA       -23.9400  -18.6150   13.4340 C.3   286  ASN286      0.1688
    130  C        -22.7390  -17.9040   14.0310 C.2   286  ASN286      0.2292
    131  O        -22.1150  -18.4250   14.9580 O.2   286  ASN286     -0.2864
    132  CB       -23.5470  -20.0310   12.9710 C.3   286  ASN286      0.1181
    133  CG       -24.7400  -20.9100   12.7130 C.2   286  ASN286      0.2629
    134  OD1      -25.8580  -20.5380   13.0460 O.2   286  ASN286     -0.2716
    135  ND2      -24.5100  -22.1030   12.1830 N.am  286  ASN286     -0.0877
    136  N        -21.6470  -14.7970   16.1910 N.3   288  LEU288     -0.1245
    137  CA       -22.2790  -13.8740   17.1440 C.3   288  LEU288      0.1561
    138  C        -21.2970  -12.7980   17.5520 C.2   288  LEU288      0.2260
    139  O        -20.1080  -13.0590   17.5990 O.2   288  LEU288     -0.2867
    140  CB       -22.7340  -14.6480   18.3820 C.3   288  LEU288      0.0270
    141  CG       -23.6380  -15.8510   18.1540 C.3   288  LEU288      0.0019
    142  CD1      -24.1550  -16.3900   19.4870 C.3   288  LEU288      0.0001
    143  CD2      -24.7760  -15.5060   17.2290 C.3   288  LEU288      0.0001
    144  N        -20.6420  -20.2450   16.8300 N.3   298  SER298     -0.1202
    145  CA       -21.6410  -20.8440   17.6790 C.3   298  SER298      0.2020
    146  C        -22.4840  -21.8050   16.8390 C.2   298  SER298      0.2618
    147  O        -22.3680  -21.8520   15.6060 O.2   298  SER298     -0.2717
    148  CB       -22.5480  -19.7760   18.2820 C.3   298  SER298      0.2103
    149  OG       -23.4110  -19.2240   17.2940 O.3   298  SER298     -0.2182
    150  N        -23.3270  -22.5660   17.5120 N.am  299  ASP299     -0.1973
    151  CA       -24.2430  -23.5040   16.8620 C.3   299  ASP299      0.1709
    152  C        -23.5000  -24.7070   16.2710 C.2   299  ASP299      0.2293
    153  O        -23.2790  -24.8060   15.0640 O.2   299  ASP299     -0.2864
    154  CB       -25.1290  -22.7880   15.8350 C.3   299  ASP299      0.1436
    155  CG       -26.3710  -23.5840   15.4790 C.2   299  ASP299      0.3671
    156  OD1      -26.3520  -24.7640   15.8110 O.co2 299  ASP299     -0.2456
    157  OD2      -27.3100  -23.0470   14.8390 O.co2 299  ASP299     -0.2456
@<TRIPOS>BOND
     1   119   120    1
     2   126   125   ar
     3   123   120    1
     4   123   124    1
     5   120   121    1
     6   125   127   ar
     7   125   124    1
     8   135   133   am
     9   128   121   am
    10   128   129    1
    11   118   116   ar
    12   121   122    2
    13   133   132    1
    14   133   134    2
    15   132   129    1
    16   114   113    2
    17   129   130    1
    18   113   112    1
    19   116   117   ar
    20   116   115    1
    21   130   131    2
    22   115   112    1
    23   112   111    1
    24   157   155   ar
    25   153   152    2
    26   155   156   ar
    27   155   154    1
    28   147   146    2
    29    22    21    1
    30   154   151    1
    31   136   137    1
    32   152   151    1
    33    23    21    1
    34    21    20    2
    35   144   145    1
    36   146   150   am
    37   146   145    1
    38   151   150    1
    39    29    28    1
    40    29    30    1
    41   137   138    1
    42   137   140    1
    43   143   141    1
    44   149   148    1
    45    28    26   am
    46    20    19    1
    47    16    15    2
    48   138   139    2
    49    42    40   ar
    50    42    41   ar
    51   145   148    1
    52    40    38   ar
    53    19    18    1
    54    31    30    2
    55    26    27    2
    56    26    25    1
    57    30    32   am
    58   141   140    1
    59   141   142    1
    60    25    24    1
    61    41    39   ar
    62    15    24   am
    63    15    14    1
    64    17    18    1
    65    17    14    1
    66    38    37   ar
    67    32    33    1
    68    39    37   ar
    69    14    13    1
    70    80    78   ar
    71    13    11   am
    72    37    36    1
    73    63    62    1
    74    72    73    1
    75    76    73    1
    76    76    77    1
    77    33    36    1
    78    33    34    1
    79    78    77    1
    80    78    79   ar
    81    73    74    1
    82    10    11    1
    83    10     9    1
    84    11    12    2
    85   110   109    1
    86    62    61    1
    87     4     3    2
    88    81    82    1
    89    86    85    1
    90    87    85    1
    91    34    35    2
    92   107   108    1
    93   107   104    1
    94    74    75    2
    95     9     3   am
    96   106   105    2
    97     3     2    1
    98   108   109    1
    99    61    60    1
   100    85    82    1
   101    82    83    1
   102    49    47    1
   103    71    69    1
   104   105   104    1
   105   104   103    1
   106    84    83    2
   107    60    59    1
   108    70    69    1
   109    47    48    1
   110    47    44    1
   111     2     5    1
   112     2     1    1
   113    69    68    1
   114    94    95    1
   115    94    93    1
   116    43    44    1
   117     5     6    1
   118    68    65    1
   119    59    56    1
   120    44    45    1
   121    65    66    1
   122    65    64    1
   123    46    45    2
   124     8     6    1
   125     6     7    1
   126    66    67    2
   127    99    98    2
   128    93    92    1
   129    56    57    1
   130    56    55    1
   131   102   100    1
   132   100   101    1
   133   100    97    1
   134    57    58    2
   135    92    89    1
   136    54    51    1
   137    98    97    1
   138    97    96    1
   139    96    90   am
   140    90    89    1
   141    90    91    2
   142    89    88    1
   143    51    52    1
   144    51    50    1
   145    52    53    2
