@<TRIPOS>MOLECULE
tmp/3c52B00.pdb
 106 101 0 0 0
SMALL
GASTEIGER

@<TRIPOS>ATOM
      1  N          6.1970   -0.8410   40.1500 N.3    23  ASN23      -0.1240
      2  CA         4.9030   -0.9660   39.4800 C.3    23  ASN23       0.1653
      3  C          5.0200   -0.7490   37.9870 C.2    23  ASN23       0.2266
      4  O          5.8940   -0.0210   37.5250 O.2    23  ASN23      -0.2867
      5  CB         3.8760    0.0030   40.0440 C.3    23  ASN23       0.1155
      6  CG         3.4200   -0.3930   41.4220 C.2    23  ASN23       0.2627
      7  OD1        4.2240   -0.4120   42.3510 O.2    23  ASN23      -0.2716
      8  ND2        2.1270   -0.7310   41.5630 N.am   23  ASN23      -0.0877
      9  N          5.4670   -5.3840   40.2460 N.3    47  GLN47      -0.1245
     10  CA         4.0740   -5.3610   40.6880 C.3    47  GLN47       0.1566
     11  C          3.0420   -4.6420   39.8170 C.2    47  GLN47       0.2260
     12  O          3.3480   -3.7210   39.0740 O.2    47  GLN47      -0.2867
     13  CB         3.9430   -4.9650   42.1720 C.3    47  GLN47       0.0367
     14  CG         4.6570   -3.7030   42.5880 C.3    47  GLN47       0.0905
     15  CD         4.5860   -3.4770   44.0820 C.2    47  GLN47       0.2608
     16  OE1        4.7890   -4.3980   44.8790 O.2    47  GLN47      -0.2717
     17  NE2        4.3060   -2.2400   44.4750 N.am   47  GLN47      -0.0878
     18  N         -0.5230   -5.9830   43.7150 N.3    82  ASP82      -0.1225
     19  CA        -0.3600   -4.8600   44.6190 C.3    82  ASP82       0.1805
     20  C         -1.7320   -4.3380   45.0310 C.2    82  ASP82       0.2597
     21  O         -2.5960   -4.0950   44.1870 O.2    82  ASP82      -0.2718
     22  CB         0.4510   -3.7840   43.9180 C.3    82  ASP82       0.1424
     23  CG         0.7660   -2.6320   44.8030 C.2    82  ASP82       0.3668
     24  OD1        0.7030   -2.8020   46.0280 O.co2  82  ASP82      -0.2456
     25  OD2        1.0660   -1.5450   44.2770 O.co2  82  ASP82      -0.2456
     26  N         -1.9420   -4.1860   46.3310 N.am   83  HIS83      -0.1975
     27  CA        -3.2390   -3.7520   46.8430 C.3    83  HIS83       0.1656
     28  C         -4.4250   -4.5500   46.3210 C.2    83  HIS83       0.2291
     29  O         -5.4150   -3.9780   45.8930 O.2    83  HIS83      -0.2864
     30  CB        -3.4470   -2.2680   46.5800 C.3    83  HIS83       0.0771
     31  CG        -2.5020   -1.4010   47.3450 C.ar   83  HIS83       0.0820
     32  ND1       -2.4290   -1.4230   48.7220 N.ar   83  HIS83      -0.2267
     33  CD2       -1.5880   -0.4910   46.9350 C.ar   83  HIS83       0.1154
     34  CE1       -1.5140   -0.5620   49.1280 C.ar   83  HIS83       0.1986
     35  NE2       -0.9920    0.0180   48.0620 N.ar   83  HIS83      -0.2212
     36  N          1.0890    7.0900   49.7370 N.3   168  HIS168     -0.1226
     37  CA         1.2540    7.1150   48.2860 C.3   168  HIS168      0.1752
     38  C          1.1630    8.5360   47.7620 C.2   168  HIS168      0.2596
     39  O          0.5090    9.3970   48.3590 O.2   168  HIS168     -0.2718
     40  CB         0.1870    6.2890   47.5710 C.3   168  HIS168      0.0759
     41  CG         0.1460    4.8530   47.9760 C.ar  168  HIS168      0.0818
     42  ND1       -1.0300    4.2060   48.2870 N.ar  168  HIS168     -0.2268
     43  CD2        1.1250    3.9290   48.0970 C.ar  168  HIS168      0.1154
     44  CE1       -0.7730    2.9500   48.5960 C.ar  168  HIS168      0.1986
     45  NE2        0.5290    2.7570   48.4920 N.ar  168  HIS168     -0.2212
     46  N          1.8030    8.7720   46.6220 N.am  169  GLY169     -0.1957
     47  CA         1.6960   10.0570   45.9660 C.3   169  GLY169      0.1869
     48  C          2.9680   10.8640   46.0130 C.2   169  GLY169      0.2309
     49  O          3.9260   10.5390   46.7230 O.2   169  GLY169     -0.2863
     50  N          4.0350   13.2700   50.1680 N.3   172  LYS172     -0.1245
     51  CA         3.9370   12.3930   51.3280 C.3   172  LYS172      0.1561
     52  C          3.9760   13.1450   52.6630 C.2   172  LYS172      0.2260
     53  O          3.3370   12.7270   53.6330 O.2   172  LYS172     -0.2867
     54  CB         5.0240   11.3140   51.2680 C.3   172  LYS172      0.0271
     55  CG         5.1360   10.6220   49.9140 C.3   172  LYS172      0.0035
     56  CD         6.3520    9.7100   49.8770 C.3   172  LYS172      0.0206
     57  CE         6.4430    8.9830   48.5540 C.3   172  LYS172      0.1093
     58  NZ         5.0990    8.4710   48.1740 N.3   172  LYS172     -0.1314
     59  N          5.4840    0.7310   51.9280 N.3   198  HIS198     -0.1226
     60  CA         4.6690    1.3180   50.8780 C.3   198  HIS198      0.1752
     61  C          4.8840    2.8250   50.8730 C.2   198  HIS198      0.2597
     62  O          5.4090    3.3890   51.8330 O.2   198  HIS198     -0.2718
     63  CB         3.1910    0.9940   51.1000 C.3   198  HIS198      0.0759
     64  CG         2.8080   -0.3940   50.6910 C.ar  198  HIS198      0.0818
     65  ND1        1.9410   -0.6510   49.6500 N.ar  198  HIS198     -0.2268
     66  CD2        3.1730   -1.6010   51.1820 C.ar  198  HIS198      0.1154
     67  CE1        1.7900   -1.9560   49.5180 C.ar  198  HIS198      0.1986
     68  NE2        2.5260   -2.5560   50.4360 N.ar  198  HIS198     -0.2212
     69  N          4.4780    3.4730   49.7890 N.am  199  GLY199     -0.1942
     70  CA         4.6570    4.9010   49.6430 C.3   199  GLY199      0.2014
     71  C          6.1130    5.2860   49.7810 C.2   199  GLY199      0.2639
     72  O          6.4290    6.2390   50.4930 O.2   199  GLY199     -0.2714
     73  N          6.9960    4.5690   49.0780 N.am  200  ALA200     -0.1963
     74  CA         8.4380    4.7260   49.2720 C.3   200  ALA200      0.1728
     75  C          9.1940    5.5060   48.1940 C.2   200  ALA200      0.2616
     76  O         10.4260    5.5800   48.2400 O.2   200  ALA200     -0.2715
     77  CB         9.0940    3.3720   49.4880 C.3   200  ALA200      0.0334
     78  N          8.4870    6.0840   47.2310 N.am  201  SER201     -0.1950
     79  CA         9.1600    6.9060   46.2240 C.3   201  SER201      0.1924
     80  C          9.9750    8.0190   46.8920 C.2   201  SER201      0.2314
     81  O          9.6140    8.5070   47.9570 O.2   201  SER201     -0.2863
     82  CB         8.1570    7.4910   45.2220 C.3   201  SER201      0.2116
     83  OG         7.8310    6.5430   44.2160 O.3   201  SER201     -0.2180
     84  N          8.1800   -0.4690   47.9010 N.3   241  ASN241     -0.1240
     85  CA         7.2760   -0.2030   46.7900 C.3   241  ASN241      0.1653
     86  C          7.5950    1.1270   46.1570 C.2   241  ASN241      0.2266
     87  O          7.7840    2.1290   46.8590 O.2   241  ASN241     -0.2867
     88  CB         5.8260   -0.2260   47.2440 C.3   241  ASN241      0.1155
     89  CG         5.3710   -1.6080   47.6500 C.2   241  ASN241      0.2627
     90  OD1        6.1880   -2.4980   47.8980 O.2   241  ASN241     -0.2716
     91  ND2        4.0540   -1.8000   47.7190 N.am  241  ASN241     -0.0877
     92  N          6.4690    3.3870   42.6410 N.3   243  ASP243     -0.1225
     93  CA         5.6750    3.6070   41.4400 C.3   243  ASP243      0.1805
     94  C          5.8010    5.0570   40.9630 C.2   243  ASP243      0.2598
     95  O          6.1970    5.3190   39.8390 O.2   243  ASP243     -0.2718
     96  CB         4.1980    3.2720   41.7000 C.3   243  ASP243      0.1424
     97  CG         3.3530    3.3060   40.4150 C.2   243  ASP243      0.3668
     98  OD1        3.9460    3.3330   39.3070 O.co2 243  ASP243     -0.2456
     99  OD2        2.0990    3.2920   40.5090 O.co2 243  ASP243     -0.2456
    100  N          5.4670    5.9910   41.8420 N.am  244  THR244     -0.1953
    101  CA         5.3940    7.4090   41.5120 C.3   244  THR244      0.1897
    102  C          6.6650    7.9670   40.8540 C.2   244  THR244      0.2313
    103  O          6.5840    8.7630   39.9220 O.2   244  THR244     -0.2863
    104  CB         5.0420    8.2470   42.7800 C.3   244  THR244      0.1794
    105  OG1        3.7540    7.8590   43.2990 O.3   244  THR244     -0.2208
    106  CG2        5.0200    9.7290   42.4450 C.3   244  THR244      0.0378
@<TRIPOS>BOND
     1     4     3    2
     2     3     2    1
     3    12    11    2
     4    98    97   ar
     5     2     5    1
     6     2     1    1
     7    11    10    1
     8    95    94    2
     9   103   102    2
    10     5     6    1
    11     9    10    1
    12    97    99   ar
    13    97    96    1
    14    10    13    1
    15   102   101    1
    16    94    93    1
    17    94   100   am
    18     6     8   am
    19     6     7    2
    20    93    96    1
    21    93    92    1
    22   101   100    1
    23   101   104    1
    24    13    14    1
    25   106   104    1
    26    14    15    1
    27   104   105    1
    28    18    19    1
    29    22    19    1
    30    22    23    1
    31    15    17   am
    32    15    16    2
    33    21    20    2
    34    83    82    1
    35    25    23   ar
    36    19    20    1
    37    23    24   ar
    38    20    26   am
    39    82    79    1
    40    29    28    2
    41    47    48    1
    42    47    46    1
    43    48    49    2
    44    86    85    1
    45    86    87    2
    46    79    80    1
    47    79    78    1
    48    28    27    1
    49    26    27    1
    50    30    27    1
    51    30    31    1
    52    46    38   am
    53    85    88    1
    54    85    84    1
    55    80    81    2
    56    33    31   ar
    57    33    35   ar
    58    78    75   am
    59    88    89    1
    60    31    32   ar
    61    40    41    1
    62    40    37    1
    63    89    91   am
    64    89    90    2
    65    38    37    1
    66    38    39    2
    67    41    43   ar
    68    41    42   ar
    69    35    34   ar
    70    43    45   ar
    71    58    57    1
    72    75    76    2
    73    75    74    1
    74    37    36    1
    75    42    44   ar
    76    45    44   ar
    77    57    56    1
    78    32    34   ar
    79    73    74    1
    80    73    71   am
    81    74    77    1
    82    67    65   ar
    83    67    68   ar
    84    70    71    1
    85    70    69    1
    86    65    64   ar
    87    71    72    2
    88    69    61   am
    89    56    55    1
    90    55    54    1
    91    50    51    1
    92    68    66   ar
    93    64    63    1
    94    64    66   ar
    95    61    60    1
    96    61    62    2
    97    60    63    1
    98    60    59    1
    99    54    51    1
   100    51    52    1
   101    52    53    2
