@<TRIPOS>MOLECULE
tmp/3c56A00.pdb
 146 138 0 0 0
SMALL
GASTEIGER

@<TRIPOS>ATOM
      1  N          0.6940   -9.7350   -7.9430 N.3    23  ASN23      -0.1240
      2  CA        -0.5690  -10.3490   -8.3290 C.3    23  ASN23       0.1653
      3  C         -0.4250  -11.2140   -9.5750 C.2    23  ASN23       0.2266
      4  O          0.4580  -10.9860  -10.4020 O.2    23  ASN23      -0.2867
      5  CB        -1.6440   -9.2850   -8.5600 C.3    23  ASN23       0.1155
      6  CG        -1.9580   -8.4910   -7.3090 C.2    23  ASN23       0.2627
      7  OD1       -1.1230   -7.7360   -6.8110 O.2    23  ASN23      -0.2716
      8  ND2       -3.1750   -8.6480   -6.7990 N.am   23  ASN23      -0.0877
      9  N         -2.9860  -13.8320  -12.4780 N.3    25  VAL25      -0.1245
     10  CA        -4.3190  -14.2370  -12.9110 C.3    25  VAL25       0.1561
     11  C         -4.2830  -15.5310  -13.7220 C.2    25  VAL25       0.2260
     12  O         -5.3250  -16.0910  -14.0580 O.2    25  VAL25      -0.2867
     13  CB        -4.9990  -13.1350  -13.7420 C.3    25  VAL25       0.0252
     14  CG1       -5.1800  -11.8810  -12.9060 C.3    25  VAL25       0.0019
     15  CG2       -4.1870  -12.8330  -14.9940 C.3    25  VAL25       0.0019
     16  N         -0.1630  -12.9450   -4.4650 N.3    47  GLN47      -0.1245
     17  CA        -1.5300  -12.6160   -4.0770 C.3    47  GLN47       0.1566
     18  C         -2.5050  -12.6320   -5.2530 C.2    47  GLN47       0.2260
     19  O         -2.1140  -12.4280   -6.4030 O.2    47  GLN47      -0.2867
     20  CB        -1.5740  -11.2630   -3.3620 C.3    47  GLN47       0.0367
     21  CG        -0.9440  -10.1220   -4.1400 C.3    47  GLN47       0.0905
     22  CD        -0.8700   -8.8430   -3.3310 C.2    47  GLN47       0.2608
     23  OE1       -0.7530   -8.8750   -2.1070 O.2    47  GLN47      -0.2717
     24  NE2       -0.9380   -7.7060   -4.0140 N.am   47  GLN47      -0.0878
     25  N         -6.5270  -11.2030   -6.2780 N.3    49  SER49      -0.1217
     26  CA        -7.7420  -10.4620   -5.9720 C.3    49  SER49       0.1889
     27  C         -8.9530  -11.3770   -6.0820 C.2    49  SER49       0.2288
     28  O         -8.8530  -12.4950   -6.5880 O.2    49  SER49      -0.2866
     29  CB        -7.8970   -9.2830   -6.9300 C.3    49  SER49       0.2089
     30  OG        -7.9850   -9.7330   -8.2700 O.3    49  SER49      -0.2183
     31  N        -11.3210  -10.8340   -8.0040 N.3    51  GLY51      -0.1210
     32  CA       -11.5710  -10.8870   -9.4320 C.3    51  GLY51       0.1956
     33  C        -10.7130  -11.9400  -10.1040 C.2    51  GLY51       0.2611
     34  O        -11.1470  -12.6020  -11.0460 O.2    51  GLY51      -0.2717
     35  N         -9.4870  -12.0930   -9.6140 N.am   52  ALA52      -0.1979
     36  CA        -8.5720  -13.1000  -10.1360 C.3    52  ALA52       0.1597
     37  C         -9.0520  -14.4970   -9.7620 C.2    52  ALA52       0.2287
     38  O         -8.9890  -15.4240  -10.5700 O.2    52  ALA52      -0.2864
     39  CB        -7.1670  -12.8620   -9.6100 C.3    52  ALA52       0.0319
     40  N         -5.9370  -10.9500   -1.9730 N.3    82  ASP82      -0.1225
     41  CA        -5.8400   -9.5060   -2.1270 C.3    82  ASP82       0.1805
     42  C         -7.2090   -8.8360   -2.1470 C.2    82  ASP82       0.2597
     43  O         -8.0350   -9.1100   -3.0200 O.2    82  ASP82      -0.2718
     44  CB        -5.0590   -9.1660   -3.3950 C.3    82  ASP82       0.1424
     45  CG        -4.7190   -7.6970   -3.4890 C.2    82  ASP82       0.3668
     46  OD1       -4.7570   -7.0050   -2.4490 O.co2  82  ASP82      -0.2456
     47  OD2       -4.4100   -7.2370   -4.6060 O.co2  82  ASP82      -0.2456
     48  N         -7.4370   -7.9590   -1.1740 N.am   83  HIS83      -0.1975
     49  CA        -8.6830   -7.2000   -1.0900 C.3    83  HIS83       0.1656
     50  C         -9.9240   -8.0760   -0.9250 C.2    83  HIS83       0.2291
     51  O        -10.8580   -8.0040   -1.7140 O.2    83  HIS83      -0.2864
     52  CB        -8.8510   -6.2780   -2.3030 C.3    83  HIS83       0.0771
     53  CG        -8.0110   -5.0430   -2.2430 C.ar   83  HIS83       0.0820
     54  ND1       -8.3630   -3.9410   -1.4940 N.ar   83  HIS83      -0.2267
     55  CD2       -6.8390   -4.7310   -2.8440 C.ar   83  HIS83       0.1154
     56  CE1       -7.4420   -3.0050   -1.6330 C.ar   83  HIS83       0.1986
     57  NE2       -6.5060   -3.4590   -2.4480 N.ar   83  HIS83      -0.2212
     58  N         -4.4450    2.5450   -6.9380 N.3   170  HIS170     -0.1226
     59  CA        -4.2840    1.5390   -7.9830 C.3   170  HIS170      0.1752
     60  C         -4.4010    2.1590   -9.3720 C.2   170  HIS170      0.2596
     61  O         -5.0070    3.2160   -9.5400 O.2   170  HIS170     -0.2718
     62  CB        -5.3150    0.4180   -7.8260 C.3   170  HIS170      0.0759
     63  CG        -5.4390   -0.1010   -6.4250 C.ar  170  HIS170      0.0818
     64  ND1       -6.6560   -0.2920   -5.8100 N.ar  170  HIS170     -0.2268
     65  CD2       -4.4990   -0.4560   -5.5200 C.ar  170  HIS170      0.1154
     66  CE1       -6.4620   -0.7500   -4.5850 C.ar  170  HIS170      0.1986
     67  NE2       -5.1590   -0.8540   -4.3840 N.ar  170  HIS170     -0.2212
     68  N         -3.8160    1.4970  -10.3650 N.am  171  GLY171     -0.1957
     69  CA        -3.8780    1.9720  -11.7350 C.3   171  GLY171      0.1869
     70  C         -2.5860    2.6190  -12.1910 C.2   171  GLY171      0.2309
     71  O         -1.6620    2.8100  -11.4030 O.2   171  GLY171     -0.2863
     72  N         -1.6450    7.4770  -11.0030 N.3   174  LYS174     -0.1245
     73  CA        -1.6480    7.7420   -9.5680 C.3   174  LYS174      0.1561
     74  C         -1.4610    9.2220   -9.2590 C.2   174  LYS174      0.2260
     75  O         -2.1340    9.7730   -8.3890 O.2   174  LYS174     -0.2867
     76  CB        -0.5460    6.9350   -8.8810 C.3   174  LYS174      0.0271
     77  CG        -0.5140    5.4730   -9.2720 C.3   174  LYS174      0.0035
     78  CD         0.6570    4.7630   -8.6210 C.3   174  LYS174      0.0206
     79  CE         0.7840    3.3390   -9.1230 C.3   174  LYS174      0.1093
     80  NZ        -0.4920    2.5940   -8.9710 N.3   174  LYS174     -0.1314
     81  N         -0.1850   -0.1840   -0.8570 N.3   200  HIS200     -0.1226
     82  CA        -1.0030   -0.5310   -2.0130 C.3   200  HIS200      0.1752
     83  C         -0.7300    0.4240   -3.1700 C.2   200  HIS200      0.2597
     84  O         -0.1740    1.5050   -2.9760 O.2   200  HIS200     -0.2718
     85  CB        -2.4880   -0.5040   -1.6460 C.3   200  HIS200      0.0759
     86  CG        -2.9530   -1.7270   -0.9200 C.ar  200  HIS200      0.0818
     87  ND1       -3.8730   -2.6040   -1.4520 N.ar  200  HIS200     -0.2268
     88  CD2       -2.6250   -2.2190    0.2990 C.ar  200  HIS200      0.1154
     89  CE1       -4.0920   -3.5840   -0.5930 C.ar  200  HIS200      0.1986
     90  NE2       -3.3470   -3.3740    0.4770 N.ar  200  HIS200     -0.2212
     91  N         -1.1220    0.0170   -4.3720 N.am  201  GLY201     -0.1942
     92  CA        -0.9080    0.8280   -5.5560 C.3   201  GLY201      0.2014
     93  C          0.5120    1.3530   -5.6270 C.2   201  GLY201      0.2639
     94  O          0.7320    2.5560   -5.7330 O.2   201  GLY201     -0.2714
     95  N          1.4800    0.4440   -5.5720 N.am  202  ALA202     -0.1963
     96  CA         2.8850    0.8310   -5.4880 C.3   202  ALA202      0.1728
     97  C          3.6620    0.5370   -6.7680 C.2   202  ALA202      0.2616
     98  O          4.8840    0.3910   -6.7370 O.2   202  ALA202     -0.2715
     99  CB         3.5430    0.1530   -4.3010 C.3   202  ALA202      0.0334
    100  N          2.9520    0.4400   -7.8860 N.am  203  SER203     -0.1950
    101  CA         3.5990    0.2730   -9.1820 C.3   203  SER203      0.1924
    102  C          4.3380    1.5470   -9.5690 C.2   203  SER203      0.2314
    103  O          3.8740    2.6490   -9.2800 O.2   203  SER203     -0.2863
    104  CB         2.5760   -0.0880  -10.2570 C.3   203  SER203      0.2116
    105  OG         2.3220   -1.4810  -10.2660 O.3   203  SER203     -0.2180
    106  N          2.6310   -3.9570   -2.8210 N.3   243  ASN243     -0.1225
    107  CA         1.7200   -4.4670   -3.8380 C.3   243  ASN243      0.1785
    108  C          2.0890   -4.0030   -5.2470 C.2   243  ASN243      0.2598
    109  O          2.1180   -2.8050   -5.5310 O.2   243  ASN243     -0.2718
    110  CB         0.2750   -4.0850   -3.5060 C.3   243  ASN243      0.1169
    111  CG        -0.2520   -4.8060   -2.2780 C.2   243  ASN243      0.2627
    112  OD1        0.5190   -5.3180   -1.4660 O.2   243  ASN243     -0.2716
    113  ND2       -1.5730   -4.8490   -2.1360 N.am  243  ASN243     -0.0877
    114  N          2.3730   -4.9630   -6.1220 N.am  244  THR244     -0.1939
    115  CA         2.7130   -4.6660   -7.5090 C.3   244  THR244      0.2028
    116  C          1.8360   -5.4720   -8.4630 C.2   244  THR244      0.2642
    117  O          1.7510   -6.6960   -8.3580 O.2   244  THR244     -0.2714
    118  CB         4.1880   -4.9800   -7.8070 C.3   244  THR244      0.1808
    119  OG1        5.0080   -4.5130   -6.7280 O.3   244  THR244     -0.2208
    120  CG2        4.6220   -4.3150   -9.1050 C.3   244  THR244      0.0379
    121  N          1.1880   -4.7810   -9.3960 N.am  245  ASP245     -0.1957
    122  CA         0.2670   -5.4240  -10.3270 C.3   245  ASP245      0.1840
    123  C          0.2920   -4.7510  -11.6980 C.2   245  ASP245      0.2622
    124  O          0.5070   -5.4080  -12.7140 O.2   245  ASP245     -0.2715
    125  CB        -1.1530   -5.4120   -9.7550 C.3   245  ASP245      0.1450
    126  CG        -2.1080   -6.2960  -10.5350 C.2   245  ASP245      0.3671
    127  OD1       -1.8780   -6.5190  -11.7410 O.co2 245  ASP245     -0.2456
    128  OD2       -3.0990   -6.7660   -9.9360 O.co2 245  ASP245     -0.2456
    129  N          0.0730   -3.4390  -11.7190 N.am  246  THR246     -0.1951
    130  CA         0.0120   -2.6890  -12.9710 C.3   246  THR246      0.1897
    131  C          1.2790   -2.8600  -13.8040 C.2   246  THR246      0.2313
    132  O          1.2090   -3.0940  -15.0110 O.2   246  THR246     -0.2863
    133  CB        -0.2330   -1.1890  -12.7250 C.3   246  THR246      0.1794
    134  OG1       -1.5070   -1.0090  -12.0950 O.3   246  THR246     -0.2208
    135  CG2       -0.2140   -0.4260  -14.0390 C.3   246  THR246      0.0378
    136  N          1.1580   -6.2070  -15.5930 N.3   249  ARG249     -0.1245
    137  CA         0.1970   -6.1920  -16.6920 C.3   249  ARG249      0.1563
    138  C          0.7680   -5.4860  -17.9180 C.2   249  ARG249      0.2260
    139  O          0.8170   -6.0540  -19.0100 O.2   249  ARG249     -0.2867
    140  CB        -1.1020   -5.5030  -16.2690 C.3   249  ARG249      0.0307
    141  CG        -1.8260   -6.1510  -15.1010 C.3   249  ARG249      0.0489
    142  CD        -3.1950   -5.5140  -14.8930 C.3   249  ARG249      0.2205
    143  NE        -3.8340   -5.9480  -13.6540 N.pl3 249  ARG249     -0.0865
    144  CZ        -5.0420   -5.5560  -13.2590 C.cat 249  ARG249      0.5346
    145  NH1       -5.7490   -4.7220  -14.0080 N.pl3 249  ARG249      0.1354
    146  NH2       -5.5450   -6.0000  -12.1150 N.pl3 249  ARG249      0.1354
@<TRIPOS>BOND
     1   139   138    2
     2   138   137    1
     3   137   140    1
     4   137   136    1
     5   140   141    1
     6   141   142    1
     7   132   131    2
     8    15    13    1
     9   142   143    1
    10    12    11    2
    11   135   133    1
    12   145   144    1
    13   131   130    1
    14    13    10    1
    15    13    14    1
    16    11    10    1
    17   143   144    2
    18   144   146    1
    19   130   133    1
    20   130   129    1
    21    10     9    1
    22   133   134    1
    23   124   123    2
    24    70    69    1
    25    70    71    2
    26   127   126   ar
    27    69    68    1
    28   129   123   am
    29   123   122    1
    30    34    33    2
    31    72    73    1
    32    38    37    2
    33   126   128   ar
    34   126   125    1
    35     4     3    2
    36    68    60   am
    37   122   125    1
    38   122   121    1
    39   105   104    1
    40   104   101    1
    41    36    37    1
    42    36    35    1
    43    36    39    1
    44    33    35   am
    45    33    32    1
    46     3     2    1
    47   102   103    2
    48   102   101    1
    49    73    74    1
    50    73    76    1
    51    61    60    2
    52    32    31    1
    53   121   116   am
    54    60    59    1
    55    77    76    1
    56    77    78    1
    57    74    75    2
    58   101   100    1
    59    79    80    1
    60    79    78    1
    61   120   118    1
    62     5     2    1
    63     5     6    1
    64   116   117    2
    65   116   115    1
    66     2     1    1
    67    30    29    1
    68    59    62    1
    69    59    58    1
    70   100    97   am
    71    62    63    1
    72   118   115    1
    73   118   119    1
    74   115   114    1
    75     6     7    2
    76     6     8   am
    77    29    26    1
    78    97    98    2
    79    97    96    1
    80    28    27    2
    81    63    64   ar
    82    63    65   ar
    83    19    18    2
    84    25    26    1
    85   114   108   am
    86    27    26    1
    87    64    66   ar
    88    94    93    2
    89    93    95   am
    90    93    92    1
    91    95    96    1
    92    92    91    1
    93   109   108    2
    94    65    67   ar
    95    96    99    1
    96    18    17    1
    97   108   107    1
    98    47    45   ar
    99    66    67   ar
   100    16    17    1
   101    91    83   am
   102    21    20    1
   103    21    22    1
   104    17    20    1
   105    24    22   am
   106   107   110    1
   107   107   106    1
   108   110   111    1
   109    45    44    1
   110    45    46   ar
   111    44    41    1
   112    22    23    2
   113    83    84    2
   114    83    82    1
   115    43    42    2
   116    55    57   ar
   117    55    53   ar
   118    57    56   ar
   119    52    53    1
   120    52    49    1
   121   111   113   am
   122   111   112    2
   123    53    54   ar
   124    42    41    1
   125    42    48   am
   126    41    40    1
   127    82    85    1
   128    82    81    1
   129    51    50    2
   130    85    86    1
   131    56    54   ar
   132    87    86   ar
   133    87    89   ar
   134    48    49    1
   135    49    50    1
   136    86    88   ar
   137    89    90   ar
   138    88    90   ar
