@<TRIPOS>MOLECULE
tmp/3c5cB00.pdb
 162 158 0 0 0
SMALL
GASTEIGER

@<TRIPOS>ATOM
      1  N         15.1060  -14.5620   45.2160 N.3    11  ARG11      -0.1231
      2  CA        13.9340  -14.7510   46.0760 C.3    11  ARG11       0.1694
      3  C         14.3320  -14.5910   47.5400 C.2    11  ARG11       0.2593
      4  O         15.3380  -15.1230   47.9620 O.2    11  ARG11      -0.2718
      5  CB        13.3550  -16.1240   45.8010 C.3    11  ARG11       0.0321
      6  CG        12.2450  -16.5830   46.6910 C.3    11  ARG11       0.0489
      7  CD        11.9810  -18.0530   46.3900 C.3    11  ARG11       0.2205
      8  NE        10.8960  -18.5740   47.2010 N.pl3  11  ARG11      -0.0865
      9  CZ         9.6510  -18.8000   46.7820 C.cat  11  ARG11       0.5346
     10  NH1        9.2720  -18.5830   45.5210 N.pl3  11  ARG11       0.1354
     11  NH2        8.7740  -19.2720   47.6430 N.pl3  11  ARG11       0.1354
     12  N         13.5260  -13.8450   48.3030 N.am   12  GLY12      -0.1942
     13  CA        13.8090  -13.5640   49.7130 C.3    12  GLY12       0.2014
     14  C         14.5210  -12.2480   49.9990 C.2    12  GLY12       0.2639
     15  O         14.5730  -11.8230   51.1660 O.2    12  GLY12      -0.2714
     16  N         15.0510  -11.6000   48.9480 N.am   13  ALA13      -0.1963
     17  CA        15.8340  -10.3380   49.0730 C.3    13  ALA13       0.1728
     18  C         15.0110   -9.1110   49.5420 C.2    13  ALA13       0.2617
     19  O         15.5430   -8.1980   50.1600 O.2    13  ALA13      -0.2715
     20  CB        16.5370  -10.0270   47.7630 C.3    13  ALA13       0.0334
     21  N         13.7190   -9.1110   49.2240 N.am   14  GLY14      -0.1940
     22  CA        12.8000   -8.0590   49.6060 C.3    14  GLY14       0.2014
     23  C         12.3550   -7.1940   48.4430 C.2    14  GLY14       0.2639
     24  O         11.9600   -6.0740   48.6570 O.2    14  GLY14      -0.2714
     25  N         12.3740   -7.7420   47.2200 N.am   15  LYS15      -0.1963
     26  CA        11.9230   -7.0370   46.0170 C.3    15  LYS15       0.1728
     27  C         10.4730   -6.5680   46.1600 C.2    15  LYS15       0.2617
     28  O         10.1590   -5.3910   45.9860 O.2    15  LYS15      -0.2715
     29  CB        12.0770   -7.9480   44.7820 C.3    15  LYS15       0.0311
     30  CG        13.5320   -8.4020   44.4830 C.3    15  LYS15       0.0038
     31  CD        13.6200   -9.2830   43.2350 C.3    15  LYS15       0.0206
     32  CE        12.8330  -10.5760   43.3500 C.3    15  LYS15       0.1093
     33  NZ        13.2880  -11.3770   44.4940 N.3    15  LYS15      -0.1314
     34  N          9.5960   -7.4900   46.5410 N.am   16  SER16      -0.1936
     35  CA         8.1640   -7.1780   46.7300 C.3    16  SER16       0.2055
     36  C          7.9350   -6.2090   47.9170 C.2    16  SER16       0.2642
     37  O          7.1550   -5.2420   47.8080 O.2    16  SER16      -0.2714
     38  CB         7.3290   -8.4700   46.9080 C.3    16  SER16       0.2130
     39  OG         7.2540   -9.2260   45.6750 O.3    16  SER16      -0.2179
     40  N          8.6220   -6.4600   49.0320 N.am   17  ALA17      -0.1977
     41  CA         8.5250   -5.5640   50.2040 C.3    17  ALA17       0.1597
     42  C          8.8970   -4.1200   49.8100 C.2    17  ALA17       0.2287
     43  O          8.1890   -3.1760   50.1720 O.2    17  ALA17      -0.2864
     44  CB         9.3850   -6.0480   51.3420 C.3    17  ALA17       0.0319
     45  N          5.0400   -1.3290   55.0950 N.3    27  PHE27      -0.1227
     46  CA         5.7480   -2.5950   55.1420 C.3    27  PHE27       0.1736
     47  C          4.7650   -3.7680   55.2670 C.2    27  PHE27       0.2595
     48  O          4.0710   -3.9320   56.2820 O.2    27  PHE27      -0.2718
     49  CB         6.7610   -2.6380   56.2990 C.3    27  PHE27       0.0547
     50  CG         7.5070   -3.9290   56.3790 C.ar   27  PHE27      -0.0202
     51  CD1        8.2540   -4.3950   55.2700 C.ar   27  PHE27      -0.0042
     52  CD2        7.4540   -4.7180   57.5150 C.ar   27  PHE27      -0.0042
     53  CE1        8.9240   -5.6050   55.3130 C.ar   27  PHE27      -0.0003
     54  CE2        8.1260   -5.9470   57.5560 C.ar   27  PHE27      -0.0003
     55  CZ         8.8740   -6.3800   56.4680 C.ar   27  PHE27      -0.0000
     56  N          4.7450   -4.5900   54.2230 N.am   28  ILE28      -0.1966
     57  CA         3.9640   -5.8180   54.1950 C.3    28  ILE28       0.1727
     58  C          4.9690   -6.9740   54.1060 C.2    28  ILE28       0.2617
     59  O          5.6880   -7.1020   53.1260 O.2    28  ILE28      -0.2715
     60  CB         2.9370   -5.8460   53.0090 C.3    28  ILE28       0.0290
     61  CG1        1.9280   -4.6720   53.1400 C.3    28  ILE28       0.0022
     62  CG2        2.2110   -7.1940   52.9880 C.3    28  ILE28       0.0023
     63  CD1        1.1250   -4.7050   54.4350 C.3    28  ILE28       0.0001
     64  N          5.0070   -7.7900   55.1620 N.am   29  SER29      -0.1936
     65  CA         6.0770   -8.7870   55.3940 C.3    29  SER29       0.2055
     66  C          5.8250  -10.1250   54.7300 C.2    29  SER29       0.2643
     67  O          6.7470  -10.9530   54.5980 O.2    29  SER29      -0.2714
     68  CB         6.2320   -9.0410   56.8930 C.3    29  SER29       0.2130
     69  OG         5.0820   -9.6830   57.4010 O.3    29  SER29      -0.2179
     70  N          4.5860  -10.3220   54.3010 N.am   30  GLU30      -0.1963
     71  CA         4.1710  -11.5480   53.6530 C.3    30  GLU30       0.1733
     72  C          3.4550  -11.1480   52.3780 C.2    30  GLU30       0.2616
     73  O          2.3370  -10.6290   52.3920 O.2    30  GLU30      -0.2715
     74  CB         3.3110  -12.3970   54.5980 C.3    30  GLU30       0.0429
     75  CG         4.1200  -12.9330   55.7800 C.3    30  GLU30       0.1163
     76  CD         5.2970  -13.8080   55.4130 C.2    30  GLU30       0.3649
     77  OE1        5.1850  -14.6550   54.5310 O.co2  30  GLU30      -0.2457
     78  OE2        6.3950  -13.6120   55.9950 O.co2  30  GLU30      -0.2457
     79  N          4.1640  -11.3010   51.2620 N.am   31  TYR31      -0.1974
     80  CA         3.6160  -10.9890   49.9810 C.3    31  TYR31       0.1639
     81  C          3.9710  -12.1140   49.0440 C.2    31  TYR31       0.2290
     82  O          5.1350  -12.5010   48.9690 O.2    31  TYR31      -0.2864
     83  CB         4.1870   -9.6840   49.4800 C.3    31  TYR31       0.0560
     84  CG         3.4610   -9.1330   48.3280 C.ar   31  TYR31      -0.0198
     85  CD1        2.3260   -8.3400   48.5220 C.ar   31  TYR31      -0.0009
     86  CD2        3.8950   -9.3730   47.0310 C.ar   31  TYR31      -0.0009
     87  CE1        1.6520   -7.8130   47.4710 C.ar   31  TYR31       0.0417
     88  CE2        3.2310   -8.8490   45.9520 C.ar   31  TYR31       0.0417
     89  CZ         2.0990   -8.0630   46.1650 C.ar   31  TYR31       0.1957
     90  OH         1.4330   -7.5260   45.0870 O.3    31  TYR31      -0.2866
     91  N          5.2780  -14.8630   47.4060 N.3    33  PRO33      -0.2116
     92  CA         6.6410  -15.0550   46.8890 C.3    33  PRO33       0.1372
     93  C          6.7370  -15.4190   45.4270 C.2    33  PRO33       0.2244
     94  O          7.7600  -15.1530   44.8270 O.2    33  PRO33      -0.2868
     95  CB         7.1850  -16.1860   47.7590 C.3    33  PRO33       0.0268
     96  CG         6.4820  -16.0070   49.0390 C.3    33  PRO33       0.0207
     97  CD         5.0600  -15.7150   48.5870 C.3    33  PRO33       0.0892
     98  N          8.1250   -6.2300   39.2580 N.3    56  ASP56      -0.1225
     99  CA         8.6240   -6.8850   40.4530 C.3    56  ASP56       0.1805
    100  C          8.7510   -8.3380   40.0240 C.2    56  ASP56       0.2598
    101  O          7.7420   -9.0640   39.9360 O.2    56  ASP56      -0.2718
    102  CB         7.6480   -6.6900   41.6430 C.3    56  ASP56       0.1424
    103  CG         8.0550   -7.4530   42.9150 C.2    56  ASP56       0.3668
    104  OD1        9.2540   -7.7370   43.1520 O.co2  56  ASP56      -0.2456
    105  OD2        7.1320   -7.7870   43.6990 O.co2  56  ASP56      -0.2456
    106  N          9.9730   -8.7320   39.6610 N.am   57  THR57      -0.1953
    107  CA        10.2050  -10.0950   39.1460 C.3    57  THR57       0.1897
    108  C         10.1920  -11.0890   40.3180 C.2    57  THR57       0.2313
    109  O         10.3730  -10.6810   41.4590 O.2    57  THR57      -0.2863
    110  CB        11.5190  -10.2120   38.3750 C.3    57  THR57       0.1794
    111  OG1       12.6320   -9.9710   39.2640 O.3    57  THR57      -0.2208
    112  CG2       11.5380   -9.2440   37.1110 C.3    57  THR57       0.0378
    113  N         19.2990   -4.4410   50.6680 N.3   116  ASN116     -0.1225
    114  CA        18.0670   -4.3070   51.4440 C.3   116  ASN116      0.1785
    115  C         18.2360   -4.8540   52.8860 C.2   116  ASN116      0.2597
    116  O         19.2610   -5.4870   53.1870 O.2   116  ASN116     -0.2718
    117  CB        16.8940   -4.9850   50.7050 C.3   116  ASN116      0.1169
    118  CG        15.5470   -4.6840   51.3280 C.2   116  ASN116      0.2627
    119  OD1       15.2690   -3.5470   51.7770 O.2   116  ASN116     -0.2716
    120  ND2       14.7000   -5.6870   51.3780 N.am  116  ASN116     -0.0877
    121  N         17.2390   -4.5820   53.7470 N.am  117  LYS117     -0.1980
    122  CA        17.1750   -5.0650   55.1510 C.3   117  LYS117      0.1596
    123  C         18.2550   -4.4180   56.0120 C.2   117  LYS117      0.2287
    124  O         18.8480   -5.0560   56.8880 O.2   117  LYS117     -0.2864
    125  CB        17.2410   -6.6140   55.2340 C.3   117  LYS117      0.0298
    126  CG        16.3010   -7.2960   54.2500 C.3   117  LYS117      0.0038
    127  CD        16.0380   -8.7730   54.6130 C.3   117  LYS117      0.0206
    128  CE        15.3810   -9.5260   53.4430 C.3   117  LYS117      0.1093
    129  NZ        14.9700  -10.9440   53.8180 N.3   117  LYS117     -0.1314
    130  N         17.8210   -2.3750   58.2820 N.3   119  ASP119     -0.1225
    131  CA        17.3040   -2.4710   59.6660 C.3   119  ASP119      0.1805
    132  C         17.8500   -3.6970   60.4200 C.2   119  ASP119      0.2597
    133  O         17.8290   -3.7200   61.6510 O.2   119  ASP119     -0.2718
    134  CB        15.7600   -2.4940   59.6640 C.3   119  ASP119      0.1424
    135  CG        15.1770   -3.7010   58.9100 C.2   119  ASP119      0.3668
    136  OD1       15.3720   -3.7960   57.6770 O.co2 119  ASP119     -0.2456
    137  OD2       14.5070   -4.5300   59.5420 O.co2 119  ASP119     -0.2456
    138  N         18.3280   -4.6980   59.6710 N.am  120  MET120     -0.1979
    139  CA        18.9900   -5.8780   60.2350 C.3   120  MET120      0.1605
    140  C         20.5060   -5.7570   60.0970 C.2   120  MET120      0.2287
    141  O         21.2040   -6.7590   60.0090 O.2   120  MET120     -0.2864
    142  CB        18.5030   -7.1690   59.5520 C.3   120  MET120      0.0413
    143  CG        17.0160   -7.4770   59.8100 C.3   120  MET120      0.0598
    144  SD        16.7100   -7.6490   61.5690 S.3   120  MET120     -0.1393
    145  CE        15.0340   -7.0010   61.7130 C.3   120  MET120      0.0692
    146  N         15.9950   -0.1680   53.4430 N.3   146  SER146     -0.1202
    147  CA        15.1320   -1.0950   54.2050 C.3   146  SER146      0.2020
    148  C         13.6590   -0.8590   53.8320 C.2   146  SER146      0.2619
    149  O         13.1910    0.2870   53.7670 O.2   146  SER146     -0.2717
    150  CB        15.3330   -0.9400   55.7300 C.3   146  SER146      0.2103
    151  OG        14.3300   -1.6200   56.4700 O.3   146  SER146     -0.2182
    152  N         12.9450   -1.9440   53.5510 N.am  147  ALA147     -0.1965
    153  CA        11.4940   -1.8790   53.3460 C.3   147  ALA147      0.1728
    154  C         10.7380   -1.5500   54.6660 C.2   147  ALA147      0.2616
    155  O          9.5760   -1.1780   54.6080 O.2   147  ALA147     -0.2715
    156  CB        10.9680   -3.1900   52.7440 C.3   147  ALA147      0.0334
    157  N         11.3540   -1.7290   55.8440 N.am  148  CYS148     -0.1968
    158  CA        10.6740   -1.3070   57.1100 C.3   148  CYS148      0.1712
    159  C         11.3310   -0.1590   57.8920 C.2   148  CYS148      0.2296
    160  O         11.2710   -0.0960   59.1280 O.2   148  CYS148     -0.2864
    161  CB        10.3890   -2.4880   58.0360 C.3   148  CYS148      0.0983
    162  SG        11.6340   -3.7360   58.1360 S.3   148  CYS148     -0.0798
@<TRIPOS>BOND
     1   112   110    1
     2   110   107    1
     3   110   111    1
     4   107   106    1
     5   107   108    1
     6    98    99    1
     7   106   100   am
     8   101   100    2
     9   100    99    1
    10   108   109    2
    11    99   102    1
    12   102   103    1
    13   103   104   ar
    14   103   105   ar
    15    31    32    1
    16    31    30    1
    17    32    33    1
    18    30    29    1
    19    29    26    1
    20    94    93    2
    21    90    89    1
    22     1     2    1
    23    93    92    1
    24    10     9    1
    25    39    38    1
    26     5     2    1
    27     5     6    1
    28    88    89   ar
    29    88    86   ar
    30    28    27    2
    31    26    27    1
    32    26    25    1
    33     2     3    1
    34    27    34   am
    35    89    87   ar
    36     7     6    1
    37     7     8    1
    38    34    35    1
    39    35    38    1
    40    35    36    1
    41     9     8    2
    42     9    11    1
    43    92    91    1
    44    92    95    1
    45    86    84   ar
    46    25    23   am
    47    91    97    1
    48    87    85   ar
    49     3     4    2
    50     3    12   am
    51    95    96    1
    52    20    17    1
    53    37    36    2
    54    36    40   am
    55    12    13    1
    56    84    85   ar
    57    84    83    1
    58    23    24    2
    59    23    22    1
    60    97    96    1
    61    16    17    1
    62    16    14   am
    63    82    81    2
    64    40    41    1
    65    81    80    1
    66    17    18    1
    67    21    18   am
    68    21    22    1
    69    83    80    1
    70    18    19    2
    71    13    14    1
    72    42    43    2
    73    42    41    1
    74    80    79    1
    75    14    15    2
    76    41    44    1
    77   113   114    1
    78   117   118    1
    79   117   114    1
    80    79    72   am
    81   118   120   am
    82   118   119    2
    83   114   115    1
    84    72    73    2
    85    72    71    1
    86   156   153    1
    87   115   116    2
    88   115   121   am
    89    62    60    1
    90    60    61    1
    91    60    57    1
    92    59    58    2
    93    61    63    1
    94   153   152    1
    95   153   154    1
    96   128   129    1
    97   128   127    1
    98   146   147    1
    99   152   148   am
   100    71    70    1
   101    71    74    1
   102   121   122    1
   103   149   148    2
   104   148   147    1
   105    58    57    1
   106    58    64   am
   107    57    56    1
   108   147   150    1
   109    56    47   am
   110   126   127    1
   111   126   125    1
   112    70    66   am
   113    77    76   ar
   114    74    75    1
   115    67    66    2
   116   155   154    2
   117   154   157   am
   118    66    65    1
   119    45    46    1
   120    46    47    1
   121    46    49    1
   122   122   125    1
   123   122   123    1
   124    64    65    1
   125    47    48    2
   126    51    53   ar
   127    51    50   ar
   128    53    55   ar
   129    65    68    1
   130    76    75    1
   131    76    78   ar
   132   150   151    1
   133   157   158    1
   134   123   124    2
   135    49    50    1
   136    50    52   ar
   137    55    54   ar
   138    68    69    1
   139   158   159    1
   140   158   161    1
   141    52    54   ar
   142   136   135   ar
   143   159   160    2
   144   161   162    1
   145   130   131    1
   146   135   137   ar
   147   135   134    1
   148   142   143    1
   149   142   139    1
   150   134   131    1
   151   131   132    1
   152   138   139    1
   153   138   132   am
   154   143   144    1
   155   141   140    2
   156   140   139    1
   157   132   133    2
   158   144   145    1
