@<TRIPOS>MOLECULE
tmp/3c5eA00.pdb
 187 182 0 0 0
SMALL
GASTEIGER

@<TRIPOS>ATOM
      1  N         18.2400   -6.1380  -10.6960 N.3   188  THR188     -0.1203
      2  CA        19.6590   -5.7670  -10.8420 C.3   188  THR188      0.1994
      3  C         20.5160   -6.6190   -9.9350 C.2   188  THR188      0.2619
      4  O         19.9860   -7.3310   -9.0570 O.2   188  THR188     -0.2717
      5  CB        19.8690   -4.2790  -10.5930 C.3   188  THR188      0.1784
      6  OG1       19.5100   -3.9790   -9.2470 O.3   188  THR188     -0.2211
      7  CG2       19.0730   -3.4200  -11.6200 C.3   188  THR188      0.0376
      8  N         21.8390   -6.5760  -10.1600 N.am  189  SER189     -0.1937
      9  CA        22.7370   -7.5720   -9.5850 C.3   189  SER189      0.2055
     10  C         22.9340   -7.4380   -8.0650 C.2   189  SER189      0.2644
     11  O         23.3120   -8.3960   -7.4110 O.2   189  SER189     -0.2714
     12  CB        24.1170   -7.5780  -10.3030 C.3   189  SER189      0.2130
     13  OG        24.0140   -7.7720  -11.7120 O.3   189  SER189     -0.2179
     14  N         22.6990   -6.2560   -7.5350 N.am  190  GLY190     -0.1939
     15  CA        22.8470   -5.9750   -6.1000 C.3   190  GLY190      0.2014
     16  C         24.2550   -5.4940   -5.7180 C.2   190  GLY190      0.2640
     17  O         24.6230   -5.4660   -4.5560 O.2   190  GLY190     -0.2714
     18  N         25.0250   -5.0810   -6.7030 N.am  191  THR191     -0.1936
     19  CA        26.4100   -4.6040   -6.5100 C.3   191  THR191      0.2028
     20  C         26.4500   -3.3670   -5.6000 C.2   191  THR191      0.2643
     21  O         27.2950   -3.2580   -4.6840 O.2   191  THR191     -0.2714
     22  CB        27.0360   -4.3020   -7.9050 C.3   191  THR191      0.1808
     23  OG1       27.0060   -5.4760   -8.7210 O.3   191  THR191     -0.2208
     24  CG2       28.5000   -3.8020   -7.7570 C.3   191  THR191      0.0379
     25  N         25.4990   -2.4530   -5.7990 N.am  192  SER192     -0.1935
     26  CA        25.4570   -1.2110   -5.0250 C.3   192  SER192      0.2055
     27  C         24.4360   -1.1250   -3.9100 C.2   192  SER192      0.2644
     28  O         24.3790   -0.1290   -3.1960 O.2   192  SER192     -0.2714
     29  CB        25.2660   -0.0150   -5.9670 C.3   192  SER192      0.2130
     30  OG        24.0150   -0.1000   -6.6260 O.3   192  SER192     -0.2179
     31  N         23.6520   -2.1650   -3.7080 N.am  193  GLY193     -0.1939
     32  CA        22.5510   -2.0750   -2.7520 C.3   193  GLY193      0.2014
     33  C         21.6050   -3.2160   -3.0340 C.2   193  GLY193      0.2639
     34  O         21.9310   -4.0780   -3.8450 O.2   193  GLY193     -0.2714
     35  N         20.4350   -3.2220   -2.3820 N.am  194  LEU194     -0.1963
     36  CA        19.4680   -4.2710   -2.6050 C.3   194  LEU194      0.1713
     37  C         19.1140   -4.2590   -4.0890 C.2   194  LEU194      0.2458
     38  O         19.0170   -3.1820   -4.6920 O.2   194  LEU194     -0.2730
     39  CB        18.2030   -4.0360   -1.8010 C.3   194  LEU194      0.0310
     40  CG        18.3290   -4.3930   -0.3290 C.3   194  LEU194      0.0022
     41  CD1       16.9970   -4.0640    0.3310 C.3   194  LEU194      0.0001
     42  CD2       18.7020   -5.8870   -0.1660 C.3   194  LEU194      0.0001
     43  N         18.9490   -5.4420   -4.6660 N.am  195  PRO195     -0.2716
     44  CA        18.5320   -5.4970   -6.0710 C.3   195  PRO195      0.1536
     45  C         17.2380   -4.7130   -6.3390 C.2   195  PRO195      0.2598
     46  O         16.3030   -4.7730   -5.5510 O.2   195  PRO195     -0.2715
     47  CB        18.2850   -7.0010   -6.2970 C.3   195  PRO195      0.0310
     48  CG        19.0710   -7.6850   -5.1990 C.3   195  PRO195      0.0237
     49  CD        19.0160   -6.7790   -4.0480 C.3   195  PRO195      0.0939
     50  N         17.2070   -4.0180   -7.4750 N.am  196  LYS196     -0.1978
     51  CA        16.0930   -3.2330   -7.9340 C.3   196  LYS196      0.1596
     52  C         15.3360   -4.0070   -9.0290 C.2   196  LYS196      0.2287
     53  O         15.9440   -4.7070   -9.7850 O.2   196  LYS196     -0.2864
     54  CB        16.6020   -1.9200   -8.5300 C.3   196  LYS196      0.0298
     55  CG        17.4010   -1.0640   -7.5200 C.3   196  LYS196      0.0038
     56  CD        18.0830    0.1470   -8.1490 C.3   196  LYS196      0.0206
     57  CE        19.1340   -0.2040   -9.2230 C.3   196  LYS196      0.1093
     58  NZ        20.5320   -0.2000   -8.7270 N.3   196  LYS196     -0.1314
     59  N         31.0430   -8.6390  -22.6840 N.3   304  VAL304     -0.1231
     60  CA        30.3070   -7.5670  -22.0130 C.3   304  VAL304      0.1692
     61  C         30.4130   -7.8580  -20.5280 C.2   304  VAL304      0.2593
     62  O         30.6190   -8.9980  -20.1240 O.2   304  VAL304     -0.2718
     63  CB        28.7730   -7.4610  -22.4010 C.3   304  VAL304      0.0266
     64  CG1       27.9380   -8.6720  -21.9060 C.3   304  VAL304      0.0020
     65  CG2       28.1080   -6.0990  -21.8950 C.3   304  VAL304      0.0020
     66  N         30.1980   -6.8350  -19.7110 N.am  305  GLY305     -0.1942
     67  CA        30.0190   -7.0240  -18.2590 C.3   305  GLY305      0.2014
     68  C         31.0150   -6.4060  -17.2940 C.2   305  GLY305      0.2639
     69  O         30.6600   -6.0520  -16.1540 O.2   305  GLY305     -0.2714
     70  N         32.2690   -6.3970  -17.7140 N.am  306  GLU306     -0.1963
     71  CA        33.3600   -5.7460  -17.0410 C.3   306  GLU306      0.1733
     72  C         34.3900   -5.3940  -18.1010 C.2   306  GLU306      0.2617
     73  O         34.2360   -5.7450  -19.2910 O.2   306  GLU306     -0.2715
     74  CB        33.9510   -6.6160  -15.9270 C.3   306  GLU306      0.0429
     75  CG        34.8360   -7.7230  -16.4190 C.3   306  GLU306      0.1163
     76  CD        35.5700   -8.4890  -15.2950 C.2   306  GLU306      0.3649
     77  OE1       35.7810   -7.9420  -14.1820 O.co2 306  GLU306     -0.2457
     78  OE2       35.9690   -9.6450  -15.5350 O.co2 306  GLU306     -0.2457
     79  N         35.3760   -4.5920  -17.6910 N.am  307  SER307     -0.1950
     80  CA        36.4010   -4.1340  -18.6190 C.3   307  SER307      0.1924
     81  C         37.1990   -5.3020  -19.1790 C.2   307  SER307      0.2314
     82  O         37.6130   -6.1890  -18.4130 O.2   307  SER307     -0.2863
     83  CB        37.3750   -3.1440  -17.9650 C.3   307  SER307      0.2116
     84  OG        36.7240   -1.9400  -17.6960 O.3   307  SER307     -0.2180
     85  N         34.4830   -5.6260  -27.5250 N.3   326  GLU326     -0.1182
     86  CA        33.8490   -5.3220  -26.2410 C.3   326  GLU326      0.1915
     87  C         32.5060   -4.5970  -26.4550 C.2   326  GLU326      0.2635
     88  O         32.2580   -3.8900  -27.4640 O.2   326  GLU326     -0.2714
     89  CB        34.7610   -4.4250  -25.3940 C.2   326  GLU326      0.0085
     90  CG        34.3780   -4.2160  -23.9710 C.2   326  GLU326      0.0835
     91  CD        35.4550   -3.5280  -23.0950 C.2   326  GLU326      0.3877
     92  OE1       36.5560   -3.1370  -23.5920 O.co2 326  GLU326     -0.2406
     93  OE2       35.1700   -3.3680  -21.8690 O.co2 326  GLU326     -0.2406
     94  N         31.6380   -4.7770  -25.4650 N.am  327  SER327     -0.1935
     95  CA        30.3760   -4.0370  -25.3610 C.3   327  SER327      0.2055
     96  C         30.1370   -3.6750  -23.8890 C.2   327  SER327      0.2643
     97  O         30.7480   -4.2090  -22.9620 O.2   327  SER327     -0.2714
     98  CB        29.2090   -4.8230  -25.9670 C.3   327  SER327      0.2130
     99  OG        28.9800   -6.0090  -25.2920 O.3   327  SER327     -0.2179
    100  N         29.1850   -2.7800  -23.7160 N.am  328  TYR328     -0.1959
    101  CA        28.8680   -2.1770  -22.4640 C.3   328  TYR328      0.1771
    102  C         27.3700   -1.9620  -22.3350 C.2   328  TYR328      0.2620
    103  O         26.6980   -1.5670  -23.2660 O.2   328  TYR328     -0.2715
    104  CB        29.5660   -0.8160  -22.4190 C.3   328  TYR328      0.0574
    105  CG        29.1120    0.1560  -21.3760 C.ar  328  TYR328     -0.0198
    106  CD1       29.4520   -0.0010  -20.0300 C.ar  328  TYR328     -0.0009
    107  CD2       28.3430    1.2630  -21.6830 C.ar  328  TYR328     -0.0009
    108  CE1       29.0620    0.9120  -19.0250 C.ar  328  TYR328      0.0417
    109  CE2       27.9620    2.1710  -20.7030 C.ar  328  TYR328      0.0417
    110  CZ        28.3240    2.0190  -19.3910 C.ar  328  TYR328      0.1957
    111  OH        27.8810    2.9430  -18.4500 O.3   328  TYR328     -0.2866
    112  N         26.8980   -2.1240  -21.1070 N.am  329  GLY329     -0.1940
    113  CA        25.5080   -1.8130  -20.8200 C.3   329  GLY329      0.2014
    114  C         25.1420   -2.1150  -19.3900 C.2   329  GLY329      0.2642
    115  O         25.9780   -2.4590  -18.5830 O.2   329  GLY329     -0.2714
    116  N         23.8460   -2.0270  -19.1250 N.am  330  GLN330     -0.1917
    117  CA        23.3690   -2.3520  -17.7860 C.3   330  GLN330      0.1949
    118  C         21.9210   -2.8960  -17.9120 C.2   330  GLN330      0.2659
    119  O         21.2740   -2.7570  -18.9640 O.2   330  GLN330     -0.2711
    120  CB        23.4480   -1.1640  -16.8320 C.2   330  GLN330      0.0091
    121  CG        22.4180   -0.0260  -17.0810 C.2   330  GLN330      0.0587
    122  CD        22.5290    1.1820  -16.1530 C.2   330  GLN330      0.2841
    123  OE1       21.6460    2.0330  -16.1540 O.2   330  GLN330     -0.2667
    124  NE2       23.6500    1.2950  -15.4560 N.am  330  GLN330     -0.0837
    125  N         21.4400   -3.5230  -16.8670 N.am  331  THR331     -0.1934
    126  CA        20.0580   -4.0840  -16.8850 C.3   331  THR331      0.2028
    127  C         19.0400   -3.0690  -17.4130 C.2   331  THR331      0.2642
    128  O         18.1510   -3.3960  -18.1870 O.2   331  THR331     -0.2714
    129  CB        19.6980   -4.6320  -15.4850 C.3   331  THR331      0.1808
    130  OG1       20.6350   -5.6610  -15.1630 O.3   331  THR331     -0.2208
    131  CG2       18.2240   -5.2070  -15.5070 C.3   331  THR331      0.0379
    132  N         19.1390   -1.8370  -16.9060 N.am  332  GLU332     -0.1976
    133  CA        18.2200   -0.7770  -17.2240 C.3   332  GLU332      0.1602
    134  C         18.2100   -0.3020  -18.6890 C.2   332  GLU332      0.2287
    135  O         17.1910    0.2400  -19.1710 O.2   332  GLU332     -0.2864
    136  CB        18.4580    0.4180  -16.3360 C.3   332  GLU332      0.0415
    137  CG        18.2570    0.1710  -14.8330 C.3   332  GLU332      0.1163
    138  CD        19.5010   -0.2590  -14.0940 C.2   332  GLU332      0.3649
    139  OE1       20.3920   -0.9490  -14.7070 O.co2 332  GLU332     -0.2457
    140  OE2       19.5570    0.1360  -12.8760 O.co2 332  GLU332     -0.2457
    141  N         35.4450    0.6450  -24.9440 N.3   350  MET350     -0.1245
    142  CA        34.2630   -0.2380  -25.0760 C.3   350  MET350      0.1570
    143  C         33.3390    0.0680  -26.2590 C.2   350  MET350      0.2261
    144  O         32.2650   -0.5220  -26.3760 O.2   350  MET350     -0.2867
    145  CB        33.5170   -0.4080  -23.7340 C.3   350  MET350      0.0387
    146  CG        33.0200    0.8580  -23.0940 C.3   350  MET350      0.0595
    147  SD        32.6540    0.7050  -21.3460 S.3   350  MET350     -0.1393
    148  CE        32.1300    2.3870  -21.0120 C.3   350  MET350      0.0692
    149  N         28.1100    5.2680  -14.1050 N.3   413  ASP413     -0.1239
    150  CA        29.4950    4.9880  -14.4640 C.3   413  ASP413      0.1674
    151  C         30.1220    6.2900  -14.9470 C.2   413  ASP413      0.2266
    152  O         29.4460    7.0780  -15.6670 O.2   413  ASP413     -0.2867
    153  CB        29.5150    3.9680  -15.6050 C.3   413  ASP413      0.1410
    154  CG        28.8510    2.6540  -15.2160 C.2   413  ASP413      0.3668
    155  OD1       29.1390    2.2380  -14.0980 O.co2 413  ASP413     -0.2456
    156  OD2       28.0560    2.0570  -15.9720 O.co2 413  ASP413     -0.2456
    157  N         35.6440    3.3800  -20.0050 N.3   425  PHE425     -0.1241
    158  CA        35.0920    3.2440  -18.6340 C.3   425  PHE425      0.1605
    159  C         36.0650    3.7310  -17.5840 C.2   425  PHE425      0.2264
    160  O         37.2520    3.3620  -17.6350 O.2   425  PHE425     -0.2867
    161  CB        34.8120    1.7530  -18.3680 C.3   425  PHE425      0.0534
    162  CG        34.2180    1.4520  -17.0310 C.ar  425  PHE425     -0.0203
    163  CD1       32.8610    1.7040  -16.7900 C.ar  425  PHE425     -0.0042
    164  CD2       34.9570    0.8290  -16.0660 C.ar  425  PHE425     -0.0042
    165  CE1       32.3010    1.3730  -15.5440 C.ar  425  PHE425     -0.0003
    166  CE2       34.4120    0.5050  -14.8540 C.ar  425  PHE425     -0.0003
    167  CZ        33.0990    0.7590  -14.5960 C.ar  425  PHE425     -0.0000
    168  N         32.6950    3.0130  -11.3890 N.3   428  ARG428     -0.1245
    169  CA        31.4230    3.4120  -10.8050 C.3   428  ARG428      0.1563
    170  C         31.6190    4.7580  -10.1160 C.2   428  ARG428      0.2260
    171  O         32.5530    4.9330   -9.3040 O.2   428  ARG428     -0.2867
    172  CB        30.9440    2.3930   -9.7700 C.3   428  ARG428      0.0307
    173  CG        30.5870    1.0770  -10.3590 C.3   428  ARG428      0.0489
    174  CD        29.3770    1.2070  -11.2630 C.3   428  ARG428      0.2205
    175  NE        28.2210    1.7910  -10.5760 N.pl3 428  ARG428     -0.0865
    176  CZ        27.0750    2.1110  -11.1610 C.cat 428  ARG428      0.5346
    177  NH1       26.9170    1.9210  -12.4450 N.pl3 428  ARG428      0.1354
    178  NH2       26.0680    2.6250  -10.4500 N.pl3 428  ARG428      0.1354
    179  N         30.7130  -10.1800   -7.8870 N.3   524  LYS524     -0.1245
    180  CA        31.1230   -8.7740   -7.9380 C.3   524  LYS524      0.1561
    181  C         31.2800   -8.2140   -6.5250 C.2   524  LYS524      0.2260
    182  O         30.4060   -8.3450   -5.7080 O.2   524  LYS524     -0.2867
    183  CB        30.1420   -7.9000   -8.7190 C.3   524  LYS524      0.0271
    184  CG        30.2900   -8.0150  -10.2220 C.3   524  LYS524      0.0035
    185  CD        29.3060   -7.1370  -10.9530 C.3   524  LYS524      0.0206
    186  CE        29.7240   -5.6850  -11.0300 C.3   524  LYS524      0.1093
    187  NZ        29.1050   -5.0560  -12.2890 N.3   524  LYS524     -0.1314
@<TRIPOS>BOND
     1    85    86    1
     2    88    87    2
     3    87    86    1
     4    87    94   am
     5   144   143    2
     6   143   142    1
     7    86    89    1
     8    98    95    1
     9    98    99    1
    10    94    95    1
    11    89    90    2
    12    95    96    1
    13   142   141    1
    14   142   145    1
    15    90    91    1
    16    96   100   am
    17    96    97    2
    18   145   146    1
    19   100   101    1
    20    92    91   ar
    21   103   102    2
    22    91    93   ar
    23   146   147    1
    24    59    60    1
    25   101   104    1
    26   101   102    1
    27   104   105    1
    28    63    60    1
    29    63    64    1
    30    63    65    1
    31   102   112   am
    32    60    61    1
    33   107   105   ar
    34   107   109   ar
    35   105   106   ar
    36   147   148    1
    37   112   113    1
    38   113   114    1
    39   109   110   ar
    40    61    62    2
    41    61    66   am
    42   106   108   ar
    43   157   158    1
    44    66    67    1
    45   110   108   ar
    46   110   111    1
    47   114   116   am
    48   114   115    2
    49    73    72    2
    50    81    80    1
    51    81    82    2
    52   135   134    2
    53   116   117    1
    54   119   118    2
    55   134   133    1
    56   158   161    1
    57   158   159    1
    58    80    83    1
    59    80    79    1
    60   161   162    1
    61    67    68    1
    62   128   127    2
    63    72    79   am
    64    72    71    1
    65    83    84    1
    66   118   117    1
    67   118   125   am
    68   117   120    1
    69    70    68   am
    70    70    71    1
    71   160   159    2
    72   127   132   am
    73   127   126    1
    74    68    69    2
    75   133   132    1
    76   133   136    1
    77   121   120    2
    78   121   122    1
    79    71    74    1
    80   162   163   ar
    81   162   164   ar
    82   126   125    1
    83   126   129    1
    84   163   165   ar
    85    75    74    1
    86    75    76    1
    87   136   137    1
    88   123   122    2
    89   122   124   am
    90   164   166   ar
    91   156   154   ar
    92   152   151    2
    93   153   154    1
    94   153   150    1
    95   165   167   ar
    96    78    76   ar
    97   131   129    1
    98   129   130    1
    99    76    77   ar
   100   154   155   ar
   101   151   150    1
   102   166   167   ar
   103   137   138    1
   104   139   138   ar
   105   150   149    1
   106   138   140   ar
   107   177   176    1
   108   187   186    1
   109    13    12    1
   110     7     5    1
   111   168   169    1
   112   174   175    1
   113   174   173    1
   114   176   175    2
   115   176   178    1
   116   186   185    1
   117   185   184    1
   118     2     1    1
   119     2     5    1
   120     2     3    1
   121   169   170    1
   122   169   172    1
   123     5     6    1
   124   173   172    1
   125    12     9    1
   126   184   183    1
   127     8     3   am
   128     8     9    1
   129   170   171    2
   130     3     4    2
   131    53    52    2
   132     9    10    1
   133    57    58    1
   134    57    56    1
   135    52    51    1
   136    23    22    1
   137   183   180    1
   138    54    51    1
   139    54    55    1
   140    56    55    1
   141    10    14   am
   142    10    11    2
   143   180   179    1
   144   180   181    1
   145    51    50    1
   146    22    24    1
   147    22    19    1
   148    14    15    1
   149    50    45   am
   150    18    19    1
   151    18    16   am
   152    30    29    1
   153   181   182    2
   154    19    20    1
   155    45    44    1
   156    45    46    2
   157    47    44    1
   158    47    48    1
   159    15    16    1
   160    44    43    1
   161    29    26    1
   162    25    20   am
   163    25    26    1
   164    16    17    2
   165    20    21    2
   166    48    49    1
   167    26    27    1
   168    38    37    2
   169    43    37   am
   170    43    49    1
   171    37    36    1
   172    27    31   am
   173    27    28    2
   174    34    33    2
   175    31    32    1
   176    33    32    1
   177    33    35   am
   178    36    35    1
   179    36    39    1
   180    39    40    1
   181    40    42    1
   182    40    41    1
