@<TRIPOS>MOLECULE
tmp/3c5hA00.pdb
 188 178 0 0 0
SMALL
GASTEIGER

@<TRIPOS>ATOM
      1  N          9.1100   39.7270    7.6420 N.3    17  LEU17      -0.1231
      2  CA         7.9500   40.6100    7.9510 C.3    17  LEU17       0.1693
      3  C          8.4600   41.9780    8.3970 C.2    17  LEU17       0.2593
      4  O          9.3660   42.1030    9.2630 O.2    17  LEU17      -0.2718
      5  CB         7.0400   39.9430    8.9880 C.3    17  LEU17       0.0284
      6  CG         5.8310   40.7400    9.4960 C.3    17  LEU17       0.0019
      7  CD1        4.9180   41.0970    8.3710 C.3    17  LEU17       0.0001
      8  CD2        5.0830   39.8920   10.5430 C.3    17  LEU17       0.0001
      9  N          7.9410   43.0420    7.7640 N.am   18  SER18      -0.1938
     10  CA         8.3580   44.3910    8.1120 C.3    18  SER18       0.2055
     11  C          7.1410   45.3030    7.8650 C.2    18  SER18       0.2643
     12  O          6.2630   44.9050    7.1520 O.2    18  SER18      -0.2714
     13  CB         9.5660   44.8800    7.2830 C.3    18  SER18       0.2130
     14  OG        10.6270   43.8970    7.2250 O.3    18  SER18      -0.2179
     15  N          7.1680   46.4710    8.4930 N.am   19  GLY19      -0.1954
     16  CA         6.1600   47.5320    8.2830 C.3    19  GLY19       0.1869
     17  C          6.0650   48.5570    9.4210 C.2    19  GLY19       0.2309
     18  O          7.0940   49.0100    9.9960 O.2    19  GLY19      -0.2863
     19  N          3.8190   45.1250   13.0880 N.3    24  LYS24      -0.1245
     20  CA         4.8190   44.3240   13.8240 C.3    24  LYS24       0.1561
     21  C          4.4560   44.1110   15.3270 C.2    24  LYS24       0.2260
     22  O          5.2820   43.6330   16.1220 O.2    24  LYS24      -0.2867
     23  CB         6.1980   45.0100   13.7600 C.3    24  LYS24       0.0271
     24  CG         6.7930   45.1870   12.3960 C.3    24  LYS24       0.0035
     25  CD         8.1330   45.9410   12.4990 C.3    24  LYS24       0.0206
     26  CE         8.0080   47.2180   13.3260 C.3    24  LYS24       0.1093
     27  NZ         8.9390   48.2770   12.9670 N.3    24  LYS24      -0.1314
     28  N          7.0220   44.9830   17.7690 N.3    27  CYS27      -0.1221
     29  CA         8.0880   44.0110   17.9310 C.3    27  CYS27       0.1808
     30  C          8.5120   43.4100   16.5630 C.2    27  CYS27       0.2602
     31  O          7.8420   42.5670   15.9940 O.2    27  CYS27      -0.2717
     32  CB         7.6430   42.9250   18.8830 C.3    27  CYS27       0.0970
     33  SG         8.9340   41.8590   19.3010 S.3    27  CYS27      -0.0800
     34  N          9.6220   43.8910   16.0490 N.am   28  GLY28      -0.1942
     35  CA        10.1460   43.3830   14.7910 C.3    28  GLY28       0.2014
     36  C         10.5710   41.9300   14.9380 C.2    28  GLY28       0.2639
     37  O         10.6900   41.3890   16.0690 O.2    28  GLY28      -0.2714
     38  N         10.8110   41.3050   13.7970 N.am   29  ILE29      -0.1963
     39  CA        11.0530   39.8700   13.7440 C.3    29  ILE29       0.1727
     40  C         12.5200   39.4470   14.0100 C.2    29  ILE29       0.2617
     41  O         12.7810   38.2370   14.1410 O.2    29  ILE29      -0.2715
     42  CB        10.5020   39.2420   12.4260 C.3    29  ILE29       0.0290
     43  CG1       11.3280   39.6960   11.2190 C.3    29  ILE29       0.0022
     44  CG2        8.9860   39.5430   12.2490 C.3    29  ILE29       0.0023
     45  CD1       12.3990   38.6710   10.7760 C.3    29  ILE29       0.0001
     46  N         13.4310   40.4070   14.1390 N.am   30  GLY30      -0.1940
     47  CA        14.8290   40.1650   14.4950 C.3    30  GLY30       0.2014
     48  C         15.8940   40.4540   13.4330 C.2    30  GLY30       0.2639
     49  O         17.0360   40.0700   13.6280 O.2    30  GLY30      -0.2714
     50  N         15.5290   41.1020   12.3000 N.am   31  LYS31      -0.1963
     51  CA        16.4810   41.3960   11.2260 C.3    31  LYS31       0.1728
     52  C         17.6880   42.1770   11.7000 C.2    31  LYS31       0.2617
     53  O         18.8440   41.7510   11.4810 O.2    31  LYS31      -0.2715
     54  CB        15.8450   42.1690   10.0350 C.3    31  LYS31       0.0311
     55  CG        14.6130   41.5350    9.4580 C.3    31  LYS31       0.0038
     56  CD        14.0530   42.3390    8.2900 C.3    31  LYS31       0.0206
     57  CE        13.4080   43.6220    8.6760 C.3    31  LYS31       0.1093
     58  NZ        12.2350   43.4190    9.6070 N.3    31  LYS31      -0.1314
     59  N         17.4430   43.3110   12.3320 N.am   32  SER32      -0.1936
     60  CA        18.5160   44.2200   12.7660 C.3    32  SER32       0.2055
     61  C         19.4680   43.5630   13.7670 C.2    32  SER32       0.2643
     62  O         20.6690   43.6700   13.6230 O.2    32  SER32      -0.2714
     63  CB        17.9180   45.5580   13.3470 C.3    32  SER32       0.2130
     64  OG        17.3660   46.3510   12.2980 O.3    32  SER32      -0.2179
     65  N         18.9230   42.8960   14.7810 N.am   33  CYS33      -0.1967
     66  CA        19.7750   42.2440   15.7780 C.3    33  CYS33       0.1712
     67  C         20.5750   41.0840   15.1640 C.2    33  CYS33       0.2296
     68  O         21.7060   40.8400   15.5840 O.2    33  CYS33      -0.2864
     69  CB        18.9800   41.7540   16.9650 C.3    33  CYS33       0.0983
     70  SG        18.2550   43.0540   17.9470 S.3    33  CYS33      -0.0798
     71  N         20.2770   45.6290   21.3400 N.3    48  LEU48      -0.1231
     72  CA        19.0480   44.8920   21.2890 C.3    48  LEU48       0.1693
     73  C         17.9530   45.7940   20.7030 C.2    48  LEU48       0.2592
     74  O         16.9370   45.2920   20.2380 O.2    48  LEU48      -0.2718
     75  CB        18.6680   44.4270   22.7050 C.3    48  LEU48       0.0284
     76  CG        18.2320   42.9870   23.0270 C.3    48  LEU48       0.0019
     77  CD1       18.8840   41.8970   22.1560 C.3    48  LEU48       0.0001
     78  CD2       18.5250   42.7510   24.5290 C.3    48  LEU48       0.0001
     79  N         18.1770   47.1180   20.7090 N.am   49  ASP49      -0.1960
     80  CA        17.1270   48.0820   20.3790 C.3    49  ASP49       0.1840
     81  C         17.5100   48.9100   19.1670 C.2    49  ASP49       0.2622
     82  O         18.4420   49.7320   19.2200 O.2    49  ASP49      -0.2715
     83  CB        16.8310   49.0170   21.5820 C.3    49  ASP49       0.1450
     84  CG        16.1180   48.2920   22.7470 C.2    49  ASP49       0.3671
     85  OD1       15.2890   47.3740   22.5030 O.co2  49  ASP49      -0.2456
     86  OD2       16.3690   48.6610   23.9180 O.co2  49  ASP49      -0.2456
     87  N         16.7540   48.6940   18.0900 N.am   50  HIS50      -0.1973
     88  CA        16.9470   49.3420   16.7830 C.3    50  HIS50       0.1656
     89  C         15.5810   49.7580   16.2450 C.2    50  HIS50       0.2291
     90  O         14.8950   49.0140   15.5280 O.2    50  HIS50      -0.2864
     91  CB        17.5920   48.3650   15.7850 C.3    50  HIS50       0.0771
     92  CG        19.0170   48.0540   16.0800 C.ar   50  HIS50       0.0820
     93  ND1       20.0380   48.9460   15.8450 N.ar   50  HIS50      -0.2267
     94  CD2       19.5940   46.9360   16.5820 C.ar   50  HIS50       0.1154
     95  CE1       21.1860   48.3850   16.1820 C.ar   50  HIS50       0.1986
     96  NE2       20.9370   47.1620   16.6240 N.ar   50  HIS50      -0.2212
     97  N         12.6000   51.4960   14.1250 N.3    52  SER52      -0.1217
     98  CA        12.3560   51.7940   12.7170 C.3    52  SER52       0.1889
     99  C         11.3770   52.9600   12.6010 C.2    52  SER52       0.2288
    100  O         10.9540   53.2870   11.5180 O.2    52  SER52      -0.2866
    101  CB        11.8410   50.5500   11.9740 C.3    52  SER52       0.2089
    102  OG        12.8380   49.5020   12.0450 O.3    52  SER52      -0.2183
    103  N         19.8970   45.0510    5.3540 N.3    82  GLU82      -0.1245
    104  CA        18.6310   44.6810    5.9320 C.3    82  GLU82       0.1567
    105  C         17.5320   45.4370    5.1810 C.2    82  GLU82       0.2260
    106  O         17.5610   46.6760    5.1250 O.2    82  GLU82      -0.2867
    107  CB        18.5840   45.0410    7.4170 C.3    82  GLU82       0.0388
    108  CG        17.1920   45.0710    7.9940 C.3    82  GLU82       0.1160
    109  CD        17.1180   45.6130    9.3970 C.2    82  GLU82       0.3649
    110  OE1       18.1700   45.9300    9.9860 O.co2  82  GLU82      -0.2457
    111  OE2       15.9730   45.7560    9.8860 O.co2  82  GLU82      -0.2457
    112  N         13.8940   46.6460    5.3000 N.3    84  THR84      -0.1203
    113  CA        12.9050   46.8560    6.3310 C.3    84  THR84       0.1994
    114  C         11.8480   47.9180    5.9200 C.2    84  THR84       0.2617
    115  O         11.6010   48.1220    4.7390 O.2    84  THR84      -0.2717
    116  CB        13.6030   47.1740    7.6490 C.3    84  THR84       0.1784
    117  OG1       12.6420   47.2110    8.6940 O.3    84  THR84      -0.2211
    118  CG2       14.4090   48.4460    7.5990 C.3    84  THR84       0.0376
    119  N         11.2400   48.5780    6.8870 N.am   85  GLU85      -0.1979
    120  CA        10.3110   49.6730    6.5420 C.3    85  GLU85       0.1602
    121  C         10.3260   50.7000    7.6710 C.2    85  GLU85       0.2287
    122  O         10.1630   50.3510    8.8480 O.2    85  GLU85      -0.2864
    123  CB         8.9090   49.1170    6.3440 C.3    85  GLU85       0.0415
    124  CG         7.9320   50.2280    5.9090 C.3    85  GLU85       0.1163
    125  CD         6.6910   49.6860    5.2800 C.2    85  GLU85       0.3649
    126  OE1        6.7680   49.1370    4.1520 O.co2  85  GLU85      -0.2457
    127  OE2        5.6300   49.8240    5.9090 O.co2  85  GLU85      -0.2457
    128  N          9.5160   33.0070   18.1980 N.3   154  SER154     -0.1217
    129  CA         9.4830   33.1970   19.6410 C.3   154  SER154      0.1889
    130  C          8.0240   33.3600   20.1240 C.2   154  SER154      0.2288
    131  O          7.1400   33.7950   19.3530 O.2   154  SER154     -0.2866
    132  CB        10.3590   34.3940   20.0510 C.3   154  SER154      0.2089
    133  OG         9.7610   35.6440   19.7380 O.3   154  SER154     -0.2183
    134  N         14.5230   33.1250   13.8030 N.3   183  THR183     -0.1203
    135  CA        15.0770   34.0760   14.7430 C.3   183  THR183      0.1994
    136  C         14.4230   33.9780   16.1600 C.2   183  THR183      0.2617
    137  O         13.2940   33.4860   16.3460 O.2   183  THR183     -0.2717
    138  CB        14.9330   35.5350   14.2290 C.3   183  THR183      0.1784
    139  OG1       13.5560   35.8070   13.9850 O.3   183  THR183     -0.2211
    140  CG2       15.7640   35.7740   12.9260 C.3   183  THR183      0.0376
    141  N         15.1950   34.4520   17.1340 N.am  184  LYS184     -0.1979
    142  CA        14.8370   34.5010   18.5400 C.3   184  LYS184      0.1596
    143  C         14.5480   33.1120   19.0810 C.2   184  LYS184      0.2287
    144  O         13.6560   32.9220   19.9020 O.2   184  LYS184     -0.2864
    145  CB        13.6090   35.4330   18.7560 C.3   184  LYS184      0.0298
    146  CG        13.6610   36.7030   17.9420 C.3   184  LYS184      0.0038
    147  CD        12.5910   37.6720   18.4440 C.3   184  LYS184      0.0206
    148  CE        12.3920   38.8230   17.5450 C.3   184  LYS184      0.1093
    149  NZ        11.1200   39.5340   17.9610 N.3   184  LYS184     -0.1314
    150  N         16.1520   31.4150   21.1730 N.3   186  ASP186     -0.1225
    151  CA        16.2890   31.3850   22.6550 C.3   186  ASP186      0.1805
    152  C         14.9490   31.4500   23.3980 C.2   186  ASP186      0.2597
    153  O         14.8730   31.0660   24.5920 O.2   186  ASP186     -0.2718
    154  CB        17.1960   32.5070   23.1560 C.3   186  ASP186      0.1424
    155  CG        16.7080   33.8840   22.7280 C.2   186  ASP186      0.3668
    156  OD1       16.7680   34.1390   21.5060 O.co2 186  ASP186     -0.2456
    157  OD2       16.2510   34.6910   23.5880 O.co2 186  ASP186     -0.2456
    158  N         13.9120   31.9640   22.7270 N.am  187  GLU187     -0.1979
    159  CA        12.5380   31.9650   23.2470 C.3   187  GLU187      0.1602
    160  C         11.6130   31.2350   22.3220 C.2   187  GLU187      0.2287
    161  O         10.4040   31.5310   22.2320 O.2   187  GLU187     -0.2864
    162  CB        12.0470   33.4120   23.4620 C.3   187  GLU187      0.0415
    163  CG        12.7970   34.1930   24.5340 C.3   187  GLU187      0.1163
    164  CD        12.5150   33.6930   25.9390 C.2   187  GLU187      0.3649
    165  OE1       11.5710   32.8850   26.1370 O.co2 187  GLU187     -0.2457
    166  OE2       13.2520   34.1050   26.8550 O.co2 187  GLU187     -0.2457
    167  N         19.7810   32.5530   17.3360 N.3   212  SER212     -0.1202
    168  CA        19.5030   33.5940   18.3390 C.3   212  SER212      0.2020
    169  C         20.5780   34.6640   18.2910 C.2   212  SER212      0.2619
    170  O         21.7740   34.4250   18.6160 O.2   212  SER212     -0.2717
    171  CB        19.4150   33.0240   19.7470 C.3   212  SER212      0.2103
    172  OG        19.2710   34.0950   20.6670 O.3   212  SER212     -0.2182
    173  N         20.1770   35.8600   17.8820 N.am  213  ALA213     -0.1965
    174  CA        21.0730   37.0050   17.9030 C.3   213  ALA213      0.1728
    175  C         21.3760   37.3450   19.3670 C.2   213  ALA213      0.2616
    176  O         22.5220   37.7370   19.6850 O.2   213  ALA213     -0.2715
    177  CB        20.4240   38.2380   17.1850 C.3   213  ALA213      0.0334
    178  N         20.3660   37.1860   20.2440 N.am  214  ARG214     -0.1977
    179  CA        20.4840   37.5480   21.6690 C.3   214  ARG214      0.1597
    180  C         21.5230   36.6560   22.3830 C.2   214  ARG214      0.2287
    181  O         22.4730   37.1660   22.9900 O.2   214  ARG214     -0.2864
    182  CB        19.1340   37.4710   22.3880 C.3   214  ARG214      0.0334
    183  CG        19.1430   38.1290   23.7410 C.3   214  ARG214      0.0492
    184  CD        17.8680   37.9260   24.5620 C.3   214  ARG214      0.2205
    185  NE        16.7790   38.8360   24.2280 N.pl3 214  ARG214     -0.0865
    186  CZ        15.9130   38.6300   23.2370 C.cat 214  ARG214      0.5346
    187  NH1       15.9940   37.5330   22.4750 N.pl3 214  ARG214      0.1354
    188  NH2       15.0150   39.5820   22.9560 N.pl3 214  ARG214      0.1354
@<TRIPOS>BOND
     1   126   125   ar
     2   115   114    2
     3   106   105    2
     4   105   104    1
     5   125   127   ar
     6   125   124    1
     7   112   113    1
     8   103   104    1
     9   124   123    1
    10   114   113    1
    11   114   119   am
    12   104   107    1
    13   113   116    1
    14   123   120    1
    15   120   119    1
    16   120   121    1
    17    12    11    2
    18    14    13    1
    19    13    10    1
    20   107   108    1
    21   118   116    1
    22     1     2    1
    23   116   117    1
    24   121   122    2
    25     9    10    1
    26     9     3   am
    27    11    10    1
    28    11    15   am
    29     2     3    1
    30     2     5    1
    31   108   109    1
    32    16    15    1
    33    16    17    1
    34    56    57    1
    35    56    55    1
    36     7     6    1
    37     3     4    2
    38    57    58    1
    39     5     6    1
    40   109   111   ar
    41   109   110   ar
    42    17    18    2
    43    55    54    1
    44     6     8    1
    45    54    51    1
    46    45    43    1
    47    43    42    1
    48    51    52    1
    49    51    50    1
    50    53    52    2
    51   100    99    2
    52    52    59   am
    53   101   102    1
    54   101    98    1
    55    44    42    1
    56    64    63    1
    57    50    48   am
    58    59    60    1
    59    24    25    1
    60    24    23    1
    61    42    39    1
    62    25    26    1
    63    99    98    1
    64    98    97    1
    65    60    63    1
    66    60    61    1
    67   140   138    1
    68    27    26    1
    69    19    20    1
    70    48    49    2
    71    48    47    1
    72    62    61    2
    73    39    38    1
    74    39    40    1
    75    23    20    1
    76    61    65   am
    77    38    36   am
    78   134   135    1
    79    20    21    1
    80   139   138    1
    81    40    46   am
    82    40    41    2
    83    46    47    1
    84   138   135    1
    85   135   136    1
    86    65    66    1
    87    35    36    1
    88    35    34    1
    89    36    37    2
    90    67    68    2
    91    67    66    1
    92    21    22    2
    93    90    89    2
    94    66    69    1
    95    91    92    1
    96    91    88    1
    97    93    92   ar
    98    93    95   ar
    99    31    30    2
   100    34    30   am
   101    92    94   ar
   102   136   137    2
   103   136   141   am
   104    95    96   ar
   105    89    88    1
   106    30    29    1
   107    94    96   ar
   108    88    87    1
   109    69    70    1
   110   141   142    1
   111   177   174    1
   112   167   168    1
   113   148   149    1
   114   148   147    1
   115    28    29    1
   116   173   174    1
   117   173   169   am
   118   174   175    1
   119    29    32    1
   120   146   147    1
   121   146   145    1
   122    87    81   am
   123   128   129    1
   124   169   168    1
   125   169   170    2
   126   168   171    1
   127   142   145    1
   128   142   143    1
   129    32    33    1
   130   143   144    2
   131    81    82    2
   132    81    80    1
   133   131   130    2
   134   175   176    2
   135   175   178   am
   136   129   132    1
   137   129   130    1
   138   133   132    1
   139   171   172    1
   140    74    73    2
   141   178   179    1
   142    80    79    1
   143    80    83    1
   144    73    79   am
   145    73    72    1
   146   150   151    1
   147    72    71    1
   148    72    75    1
   149   156   155   ar
   150    83    84    1
   151   179   180    1
   152   179   182    1
   153    77    76    1
   154   161   160    2
   155   160   159    1
   156   180   181    2
   157   182   183    1
   158   187   186    1
   159    85    84   ar
   160   151   154    1
   161   151   152    1
   162    75    76    1
   163   158   159    1
   164   158   152   am
   165   155   154    1
   166   155   157   ar
   167    84    86   ar
   168   188   186    1
   169    76    78    1
   170   186   185    2
   171   159   162    1
   172   152   153    2
   173   162   163    1
   174   183   184    1
   175   185   184    1
   176   163   164    1
   177   164   165   ar
   178   164   166   ar
