@<TRIPOS>MOLECULE
tmp/3c5iB00.pdb
 120 117 0 0 0
SMALL
GASTEIGER

@<TRIPOS>ATOM
      1  N         66.7070   60.7940    0.3090 N.3   204  ASP204     -0.1239
      2  CA        65.7620   61.8830    0.6610 C.3   204  ASP204      0.1674
      3  C         66.4220   62.9270    1.5470 C.2   204  ASP204      0.2266
      4  O         65.8510   63.3650    2.5330 O.2   204  ASP204     -0.2867
      5  CB        64.4810   61.3230    1.3040 C.3   204  ASP204      0.1410
      6  CG        63.4240   62.3870    1.5600 C.2   204  ASP204      0.3668
      7  OD1       63.3960   63.4320    0.8640 O.co2 204  ASP204     -0.2456
      8  OD2       62.6090   62.1740    2.4730 O.co2 204  ASP204     -0.2456
      9  N         67.6640   66.4150    3.0090 N.3   206  GLN206     -0.1245
     10  CA        67.0340   67.7220    3.0770 C.3   206  GLN206      0.1566
     11  C         67.1520   68.1320    4.5130 C.2   206  GLN206      0.2260
     12  O         67.3130   67.2610    5.3680 O.2   206  GLN206     -0.2867
     13  CB        65.5730   67.6250    2.6590 C.3   206  GLN206      0.0367
     14  CG        64.6810   66.8510    3.6150 C.3   206  GLN206      0.0905
     15  CD        63.2480   66.8480    3.1480 C.2   206  GLN206      0.2608
     16  OE1       62.4380   67.7140    3.5180 O.2   206  GLN206     -0.2717
     17  NE2       62.9210   65.8790    2.3240 N.am  206  GLN206     -0.0878
     18  N         65.6920   66.2600    7.5330 N.3   209  ASN209     -0.1240
     19  CA        66.1180   64.8830    7.6950 C.3   209  ASN209      0.1653
     20  C         67.5470   64.8640    8.2120 C.2   209  ASN209      0.2266
     21  O         68.2110   63.8550    8.1170 O.2   209  ASN209     -0.2867
     22  CB        65.9780   64.0820    6.3830 C.3   209  ASN209      0.1155
     23  CG        64.5640   63.6730    6.1180 C.2   209  ASN209      0.2627
     24  OD1       63.7450   63.6580    7.0270 O.2   209  ASN209     -0.2716
     25  ND2       64.2480   63.3610    4.8650 N.am  209  ASN209     -0.0877
     26  N         63.5160   55.6990    2.3160 N.3   223  TYR223     -0.1241
     27  CA        63.7270   55.6040    0.8430 C.3   223  TYR223      0.1605
     28  C         65.1050   55.1250    0.5200 C.2   223  TYR223      0.2264
     29  O         65.4540   55.0220   -0.6440 O.2   223  TYR223     -0.2867
     30  CB        63.4710   56.9240    0.0960 C.3   223  TYR223      0.0534
     31  CG        62.0980   57.4830    0.3330 C.ar  223  TYR223     -0.0201
     32  CD1       61.8890   58.4740    1.2800 C.ar  223  TYR223     -0.0009
     33  CD2       60.9930   56.9700   -0.3480 C.ar  223  TYR223     -0.0009
     34  CE1       60.5880   59.0010    1.5060 C.ar  223  TYR223      0.0417
     35  CE2       59.7060   57.4700   -0.1240 C.ar  223  TYR223      0.0417
     36  CZ        59.5160   58.4750    0.8050 C.ar  223  TYR223      0.1957
     37  OH        58.2500   58.9530    1.0230 O.3   223  TYR223     -0.2866
     38  N         67.4970   70.9670   -2.5680 N.3   239  GLU239     -0.1245
     39  CA        66.7190   71.3270   -1.3890 C.3   239  GLU239      0.1567
     40  C         67.2000   72.6000   -0.7210 C.2   239  GLU239      0.2260
     41  O         66.5420   73.1100    0.1960 O.2   239  GLU239     -0.2867
     42  CB        66.6270   70.1620   -0.3930 C.3   239  GLU239      0.0388
     43  CG        65.5820   69.1080   -0.7590 C.3   239  GLU239      0.1160
     44  CD        64.1560   69.5270   -0.4230 C.2   239  GLU239      0.3649
     45  OE1       63.9640   70.5330    0.2810 O.co2 239  GLU239     -0.2457
     46  OE2       63.2100   68.8370   -0.8600 O.co2 239  GLU239     -0.2457
     47  N         60.2680   74.3390    3.7610 N.3   244  TYR244     -0.1241
     48  CA        59.0310   73.7260    4.2500 C.3   244  TYR244      0.1605
     49  C         58.5270   74.3300    5.5540 C.2   244  TYR244      0.2264
     50  O         57.5600   73.8120    6.1400 O.2   244  TYR244     -0.2867
     51  CB        59.1880   72.2100    4.4080 C.3   244  TYR244      0.0534
     52  CG        59.6220   71.5110    3.1530 C.ar  244  TYR244     -0.0201
     53  CD1       60.9540   71.1390    2.9740 C.ar  244  TYR244     -0.0009
     54  CD2       58.7050   71.2360    2.1260 C.ar  244  TYR244     -0.0009
     55  CE1       61.3700   70.4970    1.8180 C.ar  244  TYR244      0.0417
     56  CE2       59.1060   70.5910    0.9540 C.ar  244  TYR244      0.0417
     57  CZ        60.4380   70.2320    0.8100 C.ar  244  TYR244      0.1957
     58  OH        60.8590   69.6070   -0.3390 O.3   244  TYR244     -0.2866
     59  N         60.2300   63.3700   -7.6200 N.3   302  TRP302     -0.1241
     60  CA        59.5410   63.9330   -6.4570 C.3   302  TRP302      0.1605
     61  C         58.2380   64.6230   -6.8520 C.2   302  TRP302      0.2264
     62  O         57.3330   64.7310   -6.0380 O.2   302  TRP302     -0.2867
     63  CB        60.4480   64.8070   -5.6010 C.3   302  TRP302      0.0550
     64  CG        61.5410   63.9760   -4.9480 C.ar  302  TRP302      0.0003
     65  CD1       62.8840   64.0190   -5.2230 C.ar  302  TRP302      0.0946
     66  CD2       61.3740   62.9770   -3.9400 C.ar  302  TRP302      0.0152
     67  NE1       63.5590   63.1150   -4.4520 N.ar  302  TRP302     -0.2442
     68  CE2       62.6580   62.4540   -3.6550 C.ar  302  TRP302      0.0810
     69  CE3       60.2610   62.4620   -3.2520 C.ar  302  TRP302      0.0012
     70  CZ2       62.8620   61.4390   -2.7070 C.ar  302  TRP302      0.0191
     71  CZ3       60.4620   61.4600   -2.3080 C.ar  302  TRP302      0.0001
     72  CH2       61.7540   60.9600   -2.0430 C.ar  302  TRP302      0.0015
     73  N         55.8670   61.5090   -6.8640 N.3   305  TRP305     -0.1241
     74  CA        55.6350   61.1760   -5.4820 C.3   305  TRP305      0.1605
     75  C         54.5950   62.1290   -4.9100 C.2   305  TRP305      0.2264
     76  O         53.6190   61.7040   -4.2850 O.2   305  TRP305     -0.2867
     77  CB        56.9480   61.3180   -4.7040 C.3   305  TRP305      0.0550
     78  CG        56.8920   61.2160   -3.2030 C.ar  305  TRP305      0.0003
     79  CD1       57.0270   60.0800   -2.4760 C.ar  305  TRP305      0.0946
     80  CD2       56.7660   62.2860   -2.2460 C.ar  305  TRP305      0.0152
     81  NE1       56.9580   60.3510   -1.1360 N.ar  305  TRP305     -0.2442
     82  CE2       56.7920   61.6980   -0.9620 C.ar  305  TRP305      0.0810
     83  CE3       56.5870   63.6810   -2.3460 C.ar  305  TRP305      0.0012
     84  CZ2       56.6780   62.4550    0.2280 C.ar  305  TRP305      0.0191
     85  CZ3       56.4820   64.4390   -1.1560 C.ar  305  TRP305      0.0001
     86  CH2       56.5330   63.8160    0.1130 C.ar  305  TRP305      0.0015
     87  N         49.4550   70.7770    3.5570 N.3   315  PHE315     -0.1241
     88  CA        50.4440   70.8260    2.4830 C.3   315  PHE315      0.1605
     89  C         49.7410   70.6240    1.1480 C.2   315  PHE315      0.2264
     90  O         48.9110   69.7050    1.0080 O.2   315  PHE315     -0.2867
     91  CB        51.5660   69.7980    2.7100 C.3   315  PHE315      0.0534
     92  CG        52.7980   70.0280    1.8520 C.ar  315  PHE315     -0.0203
     93  CD1       53.7320   70.9750    2.2050 C.ar  315  PHE315     -0.0042
     94  CD2       52.9840   69.3140    0.6750 C.ar  315  PHE315     -0.0042
     95  CE1       54.8520   71.1920    1.4290 C.ar  315  PHE315     -0.0003
     96  CE2       54.0870   69.5230   -0.1090 C.ar  315  PHE315     -0.0003
     97  CZ        55.0380   70.4670    0.2830 C.ar  315  PHE315     -0.0000
     98  N         52.6970   71.5910   -5.0250 N.3   320  TYR320     -0.1241
     99  CA        54.1260   71.2120   -4.9310 C.3   320  TYR320      0.1605
    100  C         54.6010   70.3680   -6.1360 C.2   320  TYR320      0.2264
    101  O         55.6820   70.6310   -6.6970 O.2   320  TYR320     -0.2867
    102  CB        54.4370   70.4890   -3.6250 C.3   320  TYR320      0.0534
    103  CG        55.9390   70.2060   -3.3930 C.ar  320  TYR320     -0.0201
    104  CD1       56.8220   71.2280   -3.1160 C.ar  320  TYR320     -0.0009
    105  CD2       56.4410   68.8990   -3.4190 C.ar  320  TYR320     -0.0009
    106  CE1       58.1770   70.9770   -2.9030 C.ar  320  TYR320      0.0417
    107  CE2       57.8050   68.6260   -3.1870 C.ar  320  TYR320      0.0417
    108  CZ        58.6470   69.6800   -2.9290 C.ar  320  TYR320      0.1957
    109  OH        59.9680   69.4470   -2.7030 O.3   320  TYR320     -0.2866
    110  N         57.6810   71.1040   -8.8230 N.3   324  ARG324     -0.1245
    111  CA        58.8070   70.1950   -9.0890 C.3   324  ARG324      0.1563
    112  C         58.8760   69.8600  -10.5640 C.2   324  ARG324      0.2260
    113  O         59.9470   69.8200  -11.1390 O.2   324  ARG324     -0.2867
    114  CB        58.7430   68.9230   -8.2310 C.3   324  ARG324      0.0307
    115  CG        58.9010   69.1420   -6.7420 C.3   324  ARG324      0.0489
    116  CD        60.2400   69.8140   -6.3220 C.3   324  ARG324      0.2205
    117  NE        61.4550   69.1280   -6.7650 N.pl3 324  ARG324     -0.0865
    118  CZ        62.2140   68.3130   -6.0140 C.cat 324  ARG324      0.5346
    119  NH1       63.3140   67.7820   -6.5330 N.pl3 324  ARG324      0.1354
    120  NH2       61.8860   68.0050   -4.7540 N.pl3 324  ARG324      0.1354
@<TRIPOS>BOND
     1   113   112    2
     2   112   111    1
     3   111   110    1
     4   111   114    1
     5   114   115    1
     6    59    60    1
     7    73    74    1
     8    61    60    1
     9    61    62    2
    10   117   116    1
    11   117   118    2
    12   115   116    1
    13   101   100    2
    14   119   118    1
    15    60    63    1
    16   100    99    1
    17   118   120    1
    18    63    64    1
    19    74    75    1
    20    74    77    1
    21    65    64   ar
    22    65    67   ar
    23    98    99    1
    24    64    66   ar
    25    99   102    1
    26    75    76    2
    27    77    78    1
    28    67    68   ar
    29    66    68   ar
    30    66    69   ar
    31    68    70   ar
    32   102   103    1
    33   105   103   ar
    34   105   107   ar
    35   103   104   ar
    36    69    71   ar
    37    78    79   ar
    38    78    80   ar
    39   107   108   ar
    40   104   106   ar
    41   108   106   ar
    42   108   109    1
    43    70    72   ar
    44    38    39    1
    45    79    81   ar
    46    83    80   ar
    47    83    85   ar
    48    71    72   ar
    49    80    82   ar
    50    39    40    1
    51    39    42    1
    52    85    86   ar
    53    81    82   ar
    54    82    84   ar
    55    46    44   ar
    56    43    44    1
    57    43    42    1
    58    40    41    2
    59    29    28    2
    60    44    45   ar
    61    33    35   ar
    62    33    31   ar
    63    58    57    1
    64    35    36   ar
    65    96    97   ar
    66    96    94   ar
    67    30    31    1
    68    30    27    1
    69    86    84   ar
    70    97    95   ar
    71     1     2    1
    72    31    32   ar
    73    28    27    1
    74     2     5    1
    75     2     3    1
    76    94    92   ar
    77    36    37    1
    78    36    34   ar
    79    57    56   ar
    80    57    55   ar
    81    27    26    1
    82     7     6   ar
    83    56    54   ar
    84    90    89    2
    85    89    88    1
    86    32    34   ar
    87     5     6    1
    88    95    93   ar
    89     3     4    2
    90     6     8   ar
    91    55    53   ar
    92    92    93   ar
    93    92    91    1
    94    54    52   ar
    95    17    15   am
    96    88    91    1
    97    88    87    1
    98    13    10    1
    99    13    14    1
   100    53    52   ar
   101     9    10    1
   102    10    11    1
   103    15    16    2
   104    15    14    1
   105    52    51    1
   106    47    48    1
   107    48    51    1
   108    48    49    1
   109    11    12    2
   110    25    23   am
   111    49    50    2
   112    23    22    1
   113    23    24    2
   114    22    19    1
   115    18    19    1
   116    19    20    1
   117    21    20    2
